   Input file: MENDp_180b.phrq
  Output file: MENDp_180b.phrq.out
Database file: ../../database/redox.dat

------------------
Reading data base.
------------------

	SOLUTION_MASTER_SPECIES
	SOLUTION_SPECIES
	PHASES
	EXCHANGE_MASTER_SPECIES
	EXCHANGE_SPECIES
	SURFACE_MASTER_SPECIES
	SURFACE_SPECIES
	RATES
	END
------------------------------------
Reading input data for simulation 1.
------------------------------------

	DATABASE ../../database/redox.dat
	TITLE Carbon decomposition in MEND
	CALCULATE_VALUES
	 fpH
	 start
	 10 pH = -la("H+")
	 20 fpH = 10^(-0.2235*pH*pH + 2.7727*pH - 8.6)
	 30 SAVE fpH
	 end
	fsalt
	 start
	 10 logs = la("Cl-")+la("Na+")
	 20 fsalt = 1 / (1.0 + exp(-2.5 * (1.5 - logs)))  #log(umol g-1)
	 40 SAVE fsalt
	 end
	frdx
	 start
	 10 do = tot('Ozero')
	 20 frdx = do/(do+0.00002)
	 40 SAVE frdx
	 end
	SOLUTION 1
	  units       mmol/kgw
	  temperature 	 25
	  pH 	  6.08
	  Acetate 	       4.38
	  Glucose 	       0.54
	  Ferrous 	       4.00
	  C(4)        1.0 redoxCO2(g) -3.4  # in equilibrium with CO2 in atmosphere, 400 pm
	  Ca          1.0
	  Na          1.0   
	  Cl          3.0  charge
	  Ozero       0.25 redoxO2(g) 0.0   #mmol/L atm level
	  Ferric      1e-20 redoxFe(OH)3(a) 0.0
	  Methane     1.0e-10
	  Amm         1.0e-3
	  SAVE SOLUTION 1
	END
-----
TITLE
-----

 Carbon decomposition in MEND

-------------------------------------------
Beginning of initial solution calculations.
-------------------------------------------

Initial solution 1.	

-----------------------------Solution composition------------------------------

	Elements           Molality       Moles

	Acetate           4.380e-03   4.380e-03
	Amm               1.000e-06   1.000e-06
	C(4)              2.381e-05   2.381e-05  Equilibrium with redoxCO2(g)
	Ca                1.000e-03   1.000e-03
	Cl                6.786e-03   6.786e-03  Charge balance
	Ferric            1.789e-07   1.789e-07  Equilibrium with redoxFe(OH)3(a)
	Ferrous           4.000e-03   4.000e-03
	Glucose           5.400e-04   5.400e-04
	Methane           1.000e-13   1.000e-13
	Na                1.000e-03   1.000e-03
	Ozero             2.553e-03   2.553e-03  Equilibrium with redoxO2(g)

----------------------------Description of solution----------------------------

                                       pH  =   6.080    
                                       pe  =   4.000    
      Specific Conductance (µS/cm,  25°C)  = 980
                        Activity of water  =   1.000
                 Ionic strength (mol/kgw)  =   1.595e-02
                       Mass of water (kg)  =   1.000e+00
                 Total alkalinity (eq/kg)  =   4.215e-03
                       Total CO2 (mol/kg)  =   2.381e-05
                         Temperature (°C)  =  25.00
                  Electrical balance (eq)  =  -7.403e-18
 Percent error, 100*(Cat-|An|)/(Cat+|An|)  =  -0.00
                               Iterations  =  12
                                  Total H  = 1.110126e+02
                                  Total O  = 5.550628e+01

----------------------------Distribution of species----------------------------

                                               Log       Log       Log    mole V
   Species          Molality    Activity  Molality  Activity     Gamma   cm³/mol

   H+              9.266e-07   8.318e-07    -6.033    -6.080    -0.047      0.00
   OH-             1.370e-08   1.203e-08    -7.863    -7.920    -0.056     (0)  
   H2O             5.551e+01   9.997e-01     1.744    -0.000     0.000     18.07
Acetate       4.380e-03
   Acetate-        4.204e-03   3.706e-03    -2.376    -2.431    -0.055     (0)  
   HAcetate        1.755e-04   1.762e-04    -3.756    -3.754     0.002     (0)  
Amm           1.000e-06
   AmmH4+          9.994e-07   8.737e-07    -6.000    -6.059    -0.058     (0)  
   AmmH3           5.964e-10   5.986e-10    -9.224    -9.223     0.002     (0)  
C(4)          2.381e-05
   CO2             1.350e-05   1.355e-05    -4.870    -4.868     0.002     (0)  
   HCO3-           8.179e-06   7.245e-06    -5.087    -5.140    -0.053     (0)  
   FerrousHCO3+    2.031e-06   1.790e-06    -5.692    -5.747    -0.055     (0)  
   CaHCO3+         6.422e-08   5.689e-08    -7.192    -7.245    -0.053     (0)  
   FerrousCO3      2.413e-08   2.422e-08    -7.617    -7.616     0.002     (0)  
   NaHCO3          3.584e-09   3.598e-09    -8.446    -8.444     0.002     (0)  
   CO3-2           6.633e-10   4.085e-10    -9.178    -9.389    -0.210     (0)  
   CaCO3           4.208e-10   4.224e-10    -9.376    -9.374     0.002     (0)  
   NaCO3-          7.619e-12   6.717e-12   -11.118   -11.173    -0.055     (0)  
Ca            1.000e-03
   Ca+2            9.999e-04   6.155e-04    -3.000    -3.211    -0.211     (0)  
   CaHCO3+         6.422e-08   5.689e-08    -7.192    -7.245    -0.053     (0)  
   CaCO3           4.208e-10   4.224e-10    -9.376    -9.374     0.002     (0)  
   CaOH+           1.393e-10   1.228e-10    -9.856    -9.911    -0.055     (0)  
Cl            6.786e-03
   Cl-             6.763e-03   5.945e-03    -2.170    -2.226    -0.056     (0)  
   FerrousCl+      2.300e-05   2.028e-05    -4.638    -4.693    -0.055     (0)  
   FerricCl+2      1.332e-14   8.046e-15   -13.875   -14.094    -0.219     (0)  
   FerricCl2+      2.424e-16   2.137e-16   -15.616   -15.670    -0.055     (0)  
   FerricCl3       1.266e-19   1.270e-19   -18.898   -18.896     0.002     (0)  
Ferric        1.789e-07
   Ferric(OH)2+    1.570e-07   1.384e-07    -6.804    -6.859    -0.055     (0)  
   Ferric(OH)3     2.135e-08   2.143e-08    -7.671    -7.669     0.002     (0)  
   FerricOH+2      5.758e-10   3.478e-10    -9.240    -9.459    -0.219     (0)  
   Ferric(OH)4-    2.664e-11   2.349e-11   -10.574   -10.629    -0.055     (0)  
   Ferric+3        1.184e-13   4.481e-14   -12.926   -13.349    -0.422     (0)  
   FerricCl+2      1.332e-14   8.046e-15   -13.875   -14.094    -0.219     (0)  
   FerricCl2+      2.424e-16   2.137e-16   -15.616   -15.670    -0.055     (0)  
   Ferric2(OH)2+4   2.447e-17   3.255e-18   -16.611   -17.487    -0.876     (0)  
   FerricCl3       1.266e-19   1.270e-19   -18.898   -18.896     0.002     (0)  
   Ferric3(OH)4+5   2.200e-21   9.412e-23   -20.658   -22.026    -1.369     (0)  
Ferrous       4.000e-03
   Ferrous+2       3.974e-03   2.471e-03    -2.401    -2.607    -0.206     (0)  
   FerrousCl+      2.300e-05   2.028e-05    -4.638    -4.693    -0.055     (0)  
   FerrousHCO3+    2.031e-06   1.790e-06    -5.692    -5.747    -0.055     (0)  
   FerrousOH+      1.065e-06   9.392e-07    -5.972    -6.027    -0.055     (0)  
   FerrousCO3      2.413e-08   2.422e-08    -7.617    -7.616     0.002     (0)  
Glucose       5.400e-04
   Glucose         5.400e-04   5.420e-04    -3.268    -3.266     0.002     (0)  
H(0)          9.760e-24
   H2              4.880e-24   4.898e-24   -23.312   -23.310     0.002     (0)  
Methane       1.000e-13
   MethaneH4       1.000e-13   1.004e-13   -13.000   -12.998     0.002     (0)  
Na            1.000e-03
   Na+             1.000e-03   8.830e-04    -3.000    -3.054    -0.054     (0)  
   NaHCO3          3.584e-09   3.598e-09    -8.446    -8.444     0.002     (0)  
   NaCO3-          7.619e-12   6.717e-12   -11.118   -11.173    -0.055     (0)  
   NaOH            6.986e-12   7.011e-12   -11.156   -11.154     0.002     (0)  
O(0)          0.000e+00
   O2              0.000e+00   0.000e+00   -45.762   -45.760     0.002     (0)  
Ozero         2.553e-03
   Ozero2          1.277e-03   1.281e-03    -2.894    -2.892     0.002     (0)  

------------------------------Saturation indices-------------------------------

  Phase               SI** log IAP   log K(298 K,   1 atm)

  FeRA            968.57   -459.81-1428.38  C5H4O2Amm
  FixpH            -6.08     -6.08    0.00  H+
  H2(g)           -20.16    -23.31   -3.15  H2
  H2O(g)           -1.51     -0.00    1.51  H2O
  Halite           -6.86     -5.28    1.58  NaCl
  MeGA           1777.30   1568.05 -209.25  C5H4O2Amm
  ORA             486.59      8.16 -478.43  C5H4O2Amm
  ORM             769.53   -109.70 -879.23  C5H4O2Amm
  redoxAragonite   -4.26    -12.60   -8.34  CaCO3
  redoxCalcite     -4.12    -12.60   -8.48  CaCO3
  redoxCH4(g)     -10.14    -13.00   -2.86  MethaneH4
  redoxCO2(g)      -3.40     -4.87   -1.47  CO2
  redoxFe(OH)3(a)  -0.00      4.89    4.89  Ferric(OH)3
  redoxGoethite     5.89      4.89   -1.00  FerricOOH
  redoxHematite    13.79      9.78   -4.01  Ferric2O3
  redoxNH3(g)     -10.99     -9.22    1.77  AmmH3
  redoxO2(g)        0.00     -2.89   -2.89  Ozero2
  redoxSiderite    -1.11    -12.00  -10.89  FerrousCO3

**For a gas, SI = log10(fugacity). Fugacity = pressure * phi / 1 atm.
  For ideal gases, phi = 1.

------------------
End of simulation.
------------------

------------------------------------
Reading input data for simulation 2.
------------------------------------

	GAS_PHASE 1 fixed volume gas phase
	  fixed_volume
	  volume 	   0.5
	  temperature 	 8.0
	  redoxCH4(g) 0.0
	  redoxCO2(g) 0.0
	  redoxH2(g)  0.0
	  redoxO2(g)  1.0
	  redoxNH3(g) 0.0
	  SAVE GAS_PHASE 1
	END
------------------
End of simulation.
------------------

------------------------------------
Reading input data for simulation 3.
------------------------------------

	USE SOLUTION 1
	USE GAS_PHASE 1
	EQUILIBRIUM_PHASES 1
	  redoxFe(OH)3(a) 0.0 5.67059990E-03
	SURFACE 1
	Hfo_w redoxFe(OH)3(a) 0.2 1.068E4
	Hfo_s redoxFe(OH)3(a) 0.005 1.068E4
	  H_a   1.774E-03  3.417E+04      2.498
	  H_b   1.774E-03
	 H_c   1.774E-03
	 H_d  1.774E-03
	  H_e   8.869E-04
	 H_f   8.869E-04
	 H_g  8.869E-04
	 H_h  8.869E-04
	  H_ab  2.948E-04
	 H_ad  2.948E-04
	 H_af  2.948E-04
	 H_ah  2.948E-04
	  H_bc  2.948E-04
	 H_be  2.948E-04
	 H_bg  2.948E-04
	 H_cd  2.948E-04
	  H_cf  2.948E-04
	 H_ch  2.948E-04
	 H_de  2.948E-04
	 H_dg  2.948E-04
	  equilibrate 1
	KINETICS  Decomposition
	cvode
	BA
	   m0   0.57458
	   formula CH2O 0.0   
	   parms 5e-4  0.26  3e-4 2.6  0.75  0.01  0.25   #Vd1, kD1, Vd2, kD2, Ec1, pEP, Ec2
	POM1
	   m0   4.0876
	   formula CH2O 0.0    
	   parms 1.5  50  2e-5  0.5  #vp1, kp1, Ip1, gD-fraction of dead BA to D   KmO2
	POM2
	   m0   1.9421
	   formula CH2O 0.0
	   parms  1.5   5  2e-5   #vp2, kp2, Ip2,  KmO2
	MOM
	   m0   10.101
	   formula CH2O 0.0
	   parms 0.1  250  0.5   #vm, km, fD- fraction of decomposed p1/p2 to D
	DOM1
	   m0   0.20956
	   formula CH2O 0.0  
	   parms  6e-5  0.5  0.5  #Input, gD  fD
	DOM2
	   m0   0.3685
	   formula CH2O 0.0  
	   parms  6e-5  0.5  #Input, fD
	QOM1
	   m0   0.055246
	   formula CH2O 0.0   
	   parms 0.006 0.1  0.001   #adsorption constant, Qmax, desorption constant
	QOM2
	   m0   1.1518
	   formula CH2O 0.0  
	   parms 0.006  1.7 0.001   #adsorption constant, Qmax, desorption constant
	EP1
	   m0   2.7775e-4
	   formula CH2O 0.0
	   parms  0.01 5e-4 0.75 1e-3  #pEP, Vd1, Ec1, rEP
	EP2
	   m0   1.3442e-4
	   formula CH2O 0.0
	   parms  0.01 5e-4 0.75 1e-3  #pEP, Vd1, Ec1, rEP
	EM
	   m0   2.0608e-4
	   formula CH2O 0.0
	   parms  0.005 5e-4 0.75 1e-3  #pEP, Vd1, Ec1, rEP
	respiration
	   m0   0.1043
	   formula CH2O 0.0    HCO3 -0.0005  Ozero2  1.1  Cl-  -50   Na+  -50
	   parms  0.75  0.25  #Ec1, Ec2
	Tot
	   m0   18.47
	   formula CH2O 0.0
	   parms  0.75  0.25 2e-5  2e-5  6e-5  6e-5   #Ip1, Ip2, Id1, Id2, Ec1, Ec2
	   steps 720 in 30 steps #hour
	  INCREMENTAL_REACTIONS true
	RATES
	BA
	   start
	     2 f1 = CALC_VALUE("fpH")
	     5 f2 = CALC_VALUE("fsalt")
	     8 f3 = CALC_VALUE("frdx")*1.007
	    10 mDOM1= kin("DOM1")
	    20 mDOM2= kin("DOM2")
	    30 bio = kin("BA")
	    40 flux1=f1*f2*f3*parm(1)*bio*mDOM1/(parm(2)+mDOM1)   #Vd1, kD1
	    50 put(flux1, 1)                                       
	    60 flux2=f1*f2*f3*parm(3)*bio*mDOM2/(parm(4)+mDOM2)   #Vd2, kD2
	    70 put(flux2, 2)                                           
	    80 flux3 = (1-parm(6)*3)*parm(1)*parm(5)*bio*0.2   ##mortality
	    90 put(flux3, 3)                              #biomass decay              
	    100 rate = parm(5)* get(1)+ parm(7)*get(2)-get(3)-(get(11)+get(13)+get(15))
	    110 save -rate * time 
	   end
	POM1
	   start
	     2 f1 = CALC_VALUE("fpH")
	     5 f2 = CALC_VALUE("fsalt")
	     8 f3 = CALC_VALUE("frdx")*1.007
	    10 mPOM1 = kin("POM1")
	    20 ep1 = kin("EP1")
	    30 flux = f1*f2*f3*parm(1) * ep1 * mPOM1 /(parm(2)+ mPOM1) # Vp1, kP1
	    40 put(flux, 4)  #flux FP1
	    50 rate = parm(3)+ (1-parm(4))*get(3)-get(4)     #input, gD
	    100 save -rate * time
	   end
	POM2
	   start
	     2 f1 = CALC_VALUE("fpH")
	     5 f2 = CALC_VALUE("fsalt")
	    10 mPOM2= kin("POM2")
	    20 ep2 = kin("EP2")
	    30 flux = f1*f2*parm(1) * ep2 * mPOM2 /(parm(2)+ mPOM2) # parm(1)=Vp2, parm(2)=Kp2
	    40 put(flux, 5)  #flux FP2
	    50 rate = parm(3)-get(5)   #parm(3)=POM2 input
	    100 save -rate * time
	   end
	MOM
	   start
	     2 f1 = CALC_VALUE("fpH")
	     5 f2 = CALC_VALUE("fsalt")
	     8 f3 = CALC_VALUE("frdx")*1.007
	    10 mMOM = kin("MOM")
	    20 em = kin("EM")
	    30 flux = f1*f2*f3*parm(1) * em * mMOM /(parm(2)+ mMOM) # parm(1)=VM, parm(2)=KM
	    40 put(flux,6)  #flux FM
	    50 rate = (1-parm(3))*(get(4)+get(5))-get(6)   #parm(3)=fD_fraction of decomposed P1/P2 to D
	    100 save -rate*time
	   end
	DOM1
	   start
	    10 rate = parm(1)+parm(2)* get(3)+get(6)+0.5*parm(3)*(get(4)+get(5))-get(1)-(get(7)-get(8))+get(12)+get(14)+get(16)
	    100 save -rate* time
	   end
	DOM2
	   start
	    50 rate = parm(1)+0.5*parm(2)*(get(4)+get(5))-get(2)-(get(9)-get(10)) 
	    100 save -rate* time
	   end
	QOM1
	   start
	    10 mQOM = kin("QOM1")
	    20 D = kin("DOM1")
	    30 flux1 = parm(1) * (1-mQOM/parm(2))* D #parm(1)=adsorption constant, parm(2)=Qmax
	    40 put(flux1,7)  #flux F4
	    50 flux2 = parm(3) * (mQOM/parm(2)) #parm(3)=desorption constant, parm(2)=Qmax
	    60 put(flux2,8)  #flux F5
	    70 rate = get(7)-get(8)
	    100 save -rate * time
	   end
	QOM2
	   start
	    10 mQOM = kin("QOM2")
	    20 D = kin("DOM2")
	    30 flux1 = parm(1) * (1-mQOM/parm(2))* D #parm(1)=adsorption constant, parm(2)=Qmax
	    40 put(flux1,9)  #flux F4
	    50 flux2 = parm(3) * (mQOM/parm(2)) #parm(3)=desorption constant, parm(2)=Qmax
	    60 put(flux2,10)  #flux F5
	    70 rate = get(9)-get(10)
	    100 save -rate * time
	   end
	EP1
	   start
	    10 p1 = kin("POM1")
	    20 p2 = kin ("POM2")
	    30 bio = kin("BA")
	    40 ep1 = kin("EP1")
	    50 flux1 = p1/(p1+p2)*parm(1)*parm(2)*parm(3)*bio *0.2
	    60 put (flux1,11)
	    70 flux2 = parm(4) *ep1
	    80 put (flux2,12)
	    90 rate = get(11)-get(12)
	    100 save -rate * time
	   end
	EP2
	   start
	    10 p1 = kin("POM1")
	    20 p2 = kin ("POM2")
	    30 bio = kin("BA")
	    40 ep2 = kin("EP2")
	    50 flux1 = p2/(p1+p2)*parm(1)*parm(2)*parm(3)*bio*0.2
	    60 put (flux1,13)
	    70 flux2 = parm(4) *ep2
	    80 put (flux2,14)
	    90 rate = get(13)-get(14)
	    100  save -rate * time
	   end
	EM
	   start
	    10 em = kin("EM")
	    20 bio = kin("BA")
	    30 flux1 = parm(1)*parm(2)*parm(3)*bio*0.2
	    40 put (flux1, 15)
	    50 flux2= parm(4)* em
	    60 put (flux2,16)
	    70 rate = get(15)-get(16)
	    100  save -rate * time
	   end
	respiration
	   start
	    10 rate = (1-parm(1))* get(1)+ (1-parm(2))*get(2)
	    20 save -rate * time
	   end
	Tot
	   start
	    10 rate = parm(3)+parm(4)+parm(5)+parm(6)- (1-parm(1))* get(1)- (1-parm(2))*get(2)
	    20 save -rate * time
	   end
	SELECTED_OUTPUT
	  reset false
	  file MENDp_180b.txt
	USER_PUNCH
	  start
	  heading Time P1 P2 M Q1 Q2 D1 D2 B EP1 EP2 EM  IC Tot pH  fpH CO2aq  O2 fsalt frdx
	  10 PUNCH SIM_TIME
	  20 PUNCH kin('POM1') kin('POM2') kin('MOM') kin('QOM1') kin('QOM2') kin('DOM1') kin('DOM2') kin('BA') kin('EP1') kin('EP2') kin('EM') 
	  30 PUNCH kin('respiration') kin("Tot")
	  40 PUNCH -la("H+")
	  50 PUNCH CALC_VALUE("fpH")
	  60 PUNCH tot('C(4)')
	  70 PUNCH tot('Ozero')
	  80 PUNCH CALC_VALUE("fsalt")  CALC_VALUE("frdx")*1.007
	  end
	END
WARNING: Suggest using master species formula in SURFACE 
	 for surface related to equilibrium_phase: H_aH.
WARNING: Suggest using master species formula in SURFACE 
	 for surface related to equilibrium_phase: H_abH2.
WARNING: Suggest using master species formula in SURFACE 
	 for surface related to equilibrium_phase: H_adH2.
WARNING: Suggest using master species formula in SURFACE 
	 for surface related to equilibrium_phase: H_afH2.
WARNING: Suggest using master species formula in SURFACE 
	 for surface related to equilibrium_phase: H_ahH2.
WARNING: Suggest using master species formula in SURFACE 
	 for surface related to equilibrium_phase: H_bH.
WARNING: Suggest using master species formula in SURFACE 
	 for surface related to equilibrium_phase: H_bcH2.
WARNING: Suggest using master species formula in SURFACE 
	 for surface related to equilibrium_phase: H_beH2.
WARNING: Suggest using master species formula in SURFACE 
	 for surface related to equilibrium_phase: H_bgH2.
WARNING: Suggest using master species formula in SURFACE 
	 for surface related to equilibrium_phase: H_cH.
WARNING: Suggest using master species formula in SURFACE 
	 for surface related to equilibrium_phase: H_cdH2.
WARNING: Suggest using master species formula in SURFACE 
	 for surface related to equilibrium_phase: H_cfH2.
WARNING: Suggest using master species formula in SURFACE 
	 for surface related to equilibrium_phase: H_chH2.
WARNING: Suggest using master species formula in SURFACE 
	 for surface related to equilibrium_phase: H_dH.
WARNING: Suggest using master species formula in SURFACE 
	 for surface related to equilibrium_phase: H_deH2.
WARNING: Suggest using master species formula in SURFACE 
	 for surface related to equilibrium_phase: H_dgH2.
WARNING: Suggest using master species formula in SURFACE 
	 for surface related to equilibrium_phase: H_eH.
WARNING: Suggest using master species formula in SURFACE 
	 for surface related to equilibrium_phase: H_fH.
WARNING: Suggest using master species formula in SURFACE 
	 for surface related to equilibrium_phase: H_gH.
WARNING: Suggest using master species formula in SURFACE 
	 for surface related to equilibrium_phase: H_hH.
WARNING: Suggest using master species formula in SURFACE 
	 for surface related to equilibrium_phase: Hfo_sOH.
WARNING: Suggest using master species formula in SURFACE 
	 for surface related to equilibrium_phase: Hfo_wOH.
WARNING: Suggest using master species formula in SURFACE 
	 for surface related to equilibrium_phase: H_aH.
WARNING: Suggest using master species formula in SURFACE 
	 for surface related to equilibrium_phase: H_abH2.
WARNING: Suggest using master species formula in SURFACE 
	 for surface related to equilibrium_phase: H_adH2.
WARNING: Suggest using master species formula in SURFACE 
	 for surface related to equilibrium_phase: H_afH2.
WARNING: Suggest using master species formula in SURFACE 
	 for surface related to equilibrium_phase: H_ahH2.
WARNING: Suggest using master species formula in SURFACE 
	 for surface related to equilibrium_phase: H_bH.
WARNING: Suggest using master species formula in SURFACE 
	 for surface related to equilibrium_phase: H_bcH2.
WARNING: Suggest using master species formula in SURFACE 
	 for surface related to equilibrium_phase: H_beH2.
WARNING: Suggest using master species formula in SURFACE 
	 for surface related to equilibrium_phase: H_bgH2.
WARNING: Suggest using master species formula in SURFACE 
	 for surface related to equilibrium_phase: H_cH.
WARNING: Suggest using master species formula in SURFACE 
	 for surface related to equilibrium_phase: H_cdH2.
WARNING: Suggest using master species formula in SURFACE 
	 for surface related to equilibrium_phase: H_cfH2.
WARNING: Suggest using master species formula in SURFACE 
	 for surface related to equilibrium_phase: H_chH2.
WARNING: Suggest using master species formula in SURFACE 
	 for surface related to equilibrium_phase: H_dH.
WARNING: Suggest using master species formula in SURFACE 
	 for surface related to equilibrium_phase: H_deH2.
WARNING: Suggest using master species formula in SURFACE 
	 for surface related to equilibrium_phase: H_dgH2.
WARNING: Suggest using master species formula in SURFACE 
	 for surface related to equilibrium_phase: H_eH.
WARNING: Suggest using master species formula in SURFACE 
	 for surface related to equilibrium_phase: H_fH.
WARNING: Suggest using master species formula in SURFACE 
	 for surface related to equilibrium_phase: H_gH.
WARNING: Suggest using master species formula in SURFACE 
	 for surface related to equilibrium_phase: H_hH.
WARNING: Suggest using master species formula in SURFACE 
	 for surface related to equilibrium_phase: Hfo_sOH.
WARNING: Suggest using master species formula in SURFACE 
	 for surface related to equilibrium_phase: Hfo_wOH.
------------------------------------------------------
Beginning of initial surface-composition calculations.
------------------------------------------------------

Surface 1.	

Diffuse Double Layer Surface-Complexation Model

H             
	 -9.754e-03  Surface charge, eq
	 -1.103e-02  sigma, C/m²
	 -3.538e-02  psi, V
	  1.377e+00  -F*psi/RT
	  3.963e+00  exp(-F*psi/RT)
	  3.417e+04  specific area, m²/g
	  8.536e+04  m² for   2.498e+00 g


H_a           
	  1.774e-03  moles
	                                   Mole                     Log
	Species               Moles    Fraction    Molality    Molality

	H_a-              1.773e-03       1.000   1.773e-03      -2.751
	H_aCa+            4.208e-07       0.000   4.208e-07      -6.376
	H_aH              2.274e-07       0.000   2.274e-07      -6.643

H_ab          
	  2.948e-04  moles
	                                   Mole                     Log
	Species               Moles    Fraction    Molality    Molality

	H_ab-2            2.943e-04       0.998   2.943e-04      -3.531
	H_abH-            4.862e-07       0.002   4.862e-07      -6.313
	H_abCa            2.208e-08       0.000   2.208e-08      -7.656
	H_abH2            6.235e-11       0.000   6.235e-11     -10.205

H_ad          
	  2.948e-04  moles
	                                   Mole                     Log
	Species               Moles    Fraction    Molality    Molality

	H_ad-2            2.279e-04       0.773   2.279e-04      -3.642
	H_adH-            6.395e-05       0.217   6.395e-05      -4.194
	H_adCa            2.905e-06       0.010   2.905e-06      -5.537
	H_adH2            8.202e-09       0.000   8.202e-09      -8.086

H_af          
	  2.948e-04  moles
	                                   Mole                     Log
	Species               Moles    Fraction    Molality    Molality

	H_afH-            2.934e-04       0.995   2.934e-04      -3.533
	H_afCa            1.188e-06       0.004   1.188e-06      -5.925
	H_af-2            1.696e-07       0.001   1.696e-07      -6.771
	H_afH2            3.763e-08       0.000   3.763e-08      -7.424

H_ah          
	  2.948e-04  moles
	                                   Mole                     Log
	Species               Moles    Fraction    Molality    Molality

	H_ahH-            2.948e-04       1.000   2.948e-04      -3.531
	H_ahH2            3.780e-08       0.000   3.780e-08      -7.422
	H_ahCa            2.122e-09       0.000   2.122e-09      -8.673
	H_ah-2            3.560e-11       0.000   3.560e-11     -10.449

H_b           
	  1.774e-03  moles
	                                   Mole                     Log
	Species               Moles    Fraction    Molality    Molality

	H_b-              1.766e-03       0.995   1.766e-03      -2.753
	H_bCa+            5.398e-06       0.003   5.398e-06      -5.268
	H_bH              2.917e-06       0.002   2.917e-06      -5.535

H_bc          
	  2.948e-04  moles
	                                   Mole                     Log
	Species               Moles    Fraction    Molality    Molality

	H_bc-2            2.850e-04       0.967   2.850e-04      -3.545
	H_bcH-            6.206e-06       0.021   6.206e-06      -5.207
	H_bcCa            3.631e-06       0.012   3.631e-06      -5.440
	H_bcH2            1.025e-08       0.000   1.025e-08      -7.989

H_be          
	  2.948e-04  moles
	                                   Mole                     Log
	Species               Moles    Fraction    Molality    Molality

	H_beH-            2.830e-04       0.960   2.830e-04      -3.548
	H_be-2            1.132e-05       0.038   1.132e-05      -4.946
	H_beH2            4.675e-07       0.002   4.675e-07      -6.330
	H_beCa            2.624e-08       0.000   2.624e-08      -7.581

H_bg          
	  2.948e-04  moles
	                                   Mole                     Log
	Species               Moles    Fraction    Molality    Molality

	H_bgH-            2.943e-04       0.998   2.943e-04      -3.531
	H_bgH2            4.862e-07       0.002   4.862e-07      -6.313
	H_bgCa            2.729e-08       0.000   2.729e-08      -7.564
	H_bg-2            2.459e-09       0.000   2.459e-09      -8.609

H_c           
	  1.774e-03  moles
	                                   Mole                     Log
	Species               Moles    Fraction    Molality    Molality

	H_c-              1.670e-03       0.942   1.670e-03      -2.777
	H_cCa+            6.731e-05       0.038   6.731e-05      -4.172
	H_cH              3.638e-05       0.021   3.638e-05      -4.439

H_cd          
	  2.948e-04  moles
	                                   Mole                     Log
	Species               Moles    Fraction    Molality    Molality

	H_cdCa            1.849e-04       0.627   1.849e-04      -3.733
	H_cd-2            8.543e-05       0.290   8.543e-05      -4.068
	H_cdH-            2.397e-05       0.081   2.397e-05      -4.620
	H_cdH2            5.220e-07       0.002   5.220e-07      -6.282

H_cf          
	  2.948e-04  moles
	                                   Mole                     Log
	Species               Moles    Fraction    Molality    Molality

	H_cfH-            2.880e-04       0.977   2.880e-04      -3.541
	H_cfH2            6.273e-06       0.021   6.273e-06      -5.203
	H_cfCa            3.521e-07       0.001   3.521e-07      -6.453
	H_cf-2            1.665e-07       0.001   1.665e-07      -6.779

H_ch          
	  2.948e-04  moles
	                                   Mole                     Log
	Species               Moles    Fraction    Molality    Molality

	H_chH-            2.882e-04       0.978   2.882e-04      -3.540
	H_chH2            6.276e-06       0.021   6.276e-06      -5.202
	H_chCa            3.523e-07       0.001   3.523e-07      -6.453
	H_ch-2            3.480e-11       0.000   3.480e-11     -10.458

H_d           
	  1.774e-03  moles
	                                   Mole                     Log
	Species               Moles    Fraction    Molality    Molality

	H_d-              9.857e-04       0.556   9.857e-04      -3.006
	H_dCa+            5.117e-04       0.288   5.117e-04      -3.291
	H_dH              2.766e-04       0.156   2.766e-04      -3.558

H_de          
	  2.948e-04  moles
	                                   Mole                     Log
	Species               Moles    Fraction    Molality    Molality

	H_deH-            2.206e-04       0.748   2.206e-04      -3.656
	H_deH2            6.190e-05       0.210   6.190e-05      -4.208
	H_de-2            8.822e-06       0.030   8.822e-06      -5.054
	H_deCa            3.474e-06       0.012   3.474e-06      -5.459

H_dg          
	  2.948e-04  moles
	                                   Mole                     Log
	Species               Moles    Fraction    Molality    Molality

	H_dgH-            2.274e-04       0.771   2.274e-04      -3.643
	H_dgH2            6.380e-05       0.216   6.380e-05      -4.195
	H_dgCa            3.582e-06       0.012   3.582e-06      -5.446
	H_dg-2            1.900e-09       0.000   1.900e-09      -8.721

H_e           
	  8.869e-04  moles
	                                   Mole                     Log
	Species               Moles    Fraction    Molality    Molality

	H_eH              8.526e-04       0.961   8.526e-04      -3.069
	H_e-              3.409e-05       0.038   3.409e-05      -4.467
	H_eCa+            2.558e-07       0.000   2.558e-07      -6.592

H_f           
	  8.869e-04  moles
	                                   Mole                     Log
	Species               Moles    Fraction    Molality    Molality

	H_fH              8.861e-04       0.999   8.861e-04      -3.053
	H_f-              5.122e-07       0.001   5.122e-07      -6.291
	H_fCa+            2.659e-07       0.000   2.659e-07      -6.575

H_g           
	  8.869e-04  moles
	                                   Mole                     Log
	Species               Moles    Fraction    Molality    Molality

	H_gH              8.866e-04       1.000   8.866e-04      -3.052
	H_gCa+            2.661e-07       0.000   2.661e-07      -6.575
	H_g-              7.408e-09       0.000   7.408e-09      -8.130

H_h           
	  8.869e-04  moles
	                                   Mole                     Log
	Species               Moles    Fraction    Molality    Molality

	H_hH              8.866e-04       1.000   8.866e-04      -3.052
	H_hCa+            2.661e-07       0.000   2.661e-07      -6.575
	H_h-              1.071e-10       0.000   1.071e-10      -9.970

Hfo           
	  4.744e-05  Surface charge, eq
	  7.559e-02  sigma, C/m²
	  1.198e-01  psi, V
	 -4.664e+00  -F*psi/RT
	  9.426e-03  exp(-F*psi/RT)
	  1.068e+04  specific area, m²/mol redoxFe(OH)3(a)
	  6.056e+01  m² for   5.671e-03 moles of redoxFe(OH)3(a)


Hfo_s         
	  2.835e-05  moles	[0.005 mol/(mol redoxFe(OH)3(a))]
	                                   Mole                     Log
	Species               Moles    Fraction    Molality    Molality

	Hfo_sOFerrous+    2.002e-05       0.706   2.002e-05      -4.699
	Hfo_sOH           6.371e-06       0.225   6.371e-06      -5.196
	Hfo_sOH2+         9.740e-07       0.034   9.740e-07      -6.011
	Hfo_sO-           9.548e-07       0.034   9.548e-07      -6.020
	Hfo_sOHCa+2       3.252e-08       0.001   3.252e-08      -7.488

Hfo_w         
	  1.134e-03  moles	[0.2 mol/(mol redoxFe(OH)3(a))]
	                                   Mole                     Log
	Species               Moles    Fraction    Molality    Molality

	Hfo_wOH           8.450e-04       0.745   8.450e-04      -3.073
	Hfo_wOH2+         1.292e-04       0.114   1.292e-04      -3.889
	Hfo_wO-           1.266e-04       0.112   1.266e-04      -3.897
	Hfo_wOFerrous+    2.478e-05       0.022   2.478e-05      -4.606
	Hfo_wOFerrousOH   8.504e-06       0.007   8.504e-06      -5.070
	Hfo_wOCa+         8.325e-09       0.000   8.325e-09      -8.080

-----------------------------------------
Beginning of batch-reaction calculations.
-----------------------------------------

Reaction step 1.

WARNING: Element Hzero is contained in gas redoxH2(g) (which has 0.0 mass),
but is not in solution or other phases.
WARNING: Element Hzero is contained in gas redoxH2(g) (which has 0.0 mass),
but is not in solution or other phases.
WARNING: Element Hzero is contained in gas redoxH2(g) (which has 0.0 mass),
but is not in solution or other phases.
WARNING: Element Hzero is contained in gas redoxH2(g) (which has 0.0 mass),
but is not in solution or other phases.
WARNING: Element Hzero is contained in gas redoxH2(g) (which has 0.0 mass),
but is not in solution or other phases.
WARNING: Element Hzero is contained in gas redoxH2(g) (which has 0.0 mass),
but is not in solution or other phases.
WARNING: Element Hzero is contained in gas redoxH2(g) (which has 0.0 mass),
but is not in solution or other phases.
WARNING: Element Hzero is contained in gas redoxH2(g) (which has 0.0 mass),
but is not in solution or other phases.
WARNING: Element Hzero is contained in gas redoxH2(g) (which has 0.0 mass),
but is not in solution or other phases.
WARNING: Element Hzero is contained in gas redoxH2(g) (which has 0.0 mass),
but is not in solution or other phases.
WARNING: Element Hzero is contained in gas redoxH2(g) (which has 0.0 mass),
but is not in solution or other phases.
WARNING: Element Hzero is contained in gas redoxH2(g) (which has 0.0 mass),
but is not in solution or other phases.
WARNING: Element Hzero is contained in gas redoxH2(g) (which has 0.0 mass),
but is not in solution or other phases.
WARNING: Element Hzero is contained in gas redoxH2(g) (which has 0.0 mass),
but is not in solution or other phases.
WARNING: Element Hzero is contained in gas redoxH2(g) (which has 0.0 mass),
but is not in solution or other phases.
WARNING: Element Hzero is contained in gas redoxH2(g) (which has 0.0 mass),
but is not in solution or other phases.
WARNING: Element Hzero is contained in gas redoxH2(g) (which has 0.0 mass),
but is not in solution or other phases.
WARNING: Element Hzero is contained in gas redoxH2(g) (which has 0.0 mass),
but is not in solution or other phases.
WARNING: Element Hzero is contained in gas redoxH2(g) (which has 0.0 mass),
but is not in solution or other phases.
WARNING: Element Hzero is contained in gas redoxH2(g) (which has 0.0 mass),
but is not in solution or other phases.
WARNING: Element Hzero is contained in gas redoxH2(g) (which has 0.0 mass),
but is not in solution or other phases.
WARNING: Element Hzero is contained in gas redoxH2(g) (which has 0.0 mass),
but is not in solution or other phases.
WARNING: Element Hzero is contained in gas redoxH2(g) (which has 0.0 mass),
but is not in solution or other phases.
WARNING: Element Hzero is contained in gas redoxH2(g) (which has 0.0 mass),
but is not in solution or other phases.
WARNING: Element Hzero is contained in gas redoxH2(g) (which has 0.0 mass),
but is not in solution or other phases.
WARNING: Element Hzero is contained in gas redoxH2(g) (which has 0.0 mass),
but is not in solution or other phases.
WARNING: Element Hzero is contained in gas redoxH2(g) (which has 0.0 mass),
but is not in solution or other phases.
WARNING: Element Hzero is contained in gas redoxH2(g) (which has 0.0 mass),
but is not in solution or other phases.
WARNING: Element Hzero is contained in gas redoxH2(g) (which has 0.0 mass),
but is not in solution or other phases.
WARNING: Element Hzero is contained in gas redoxH2(g) (which has 0.0 mass),
but is not in solution or other phases.
WARNING: Element Hzero is contained in gas redoxH2(g) (which has 0.0 mass),
but is not in solution or other phases.
WARNING: Element Hzero is contained in gas redoxH2(g) (which has 0.0 mass),
but is not in solution or other phases.
WARNING: Element Hzero is contained in gas redoxH2(g) (which has 0.0 mass),
but is not in solution or other phases.
WARNING: Element Hzero is contained in gas redoxH2(g) (which has 0.0 mass),
but is not in solution or other phases.
WARNING: Element Hzero is contained in gas redoxH2(g) (which has 0.0 mass),
but is not in solution or other phases.
WARNING: Element Hzero is contained in gas redoxH2(g) (which has 0.0 mass),
but is not in solution or other phases.
WARNING: Element Hzero is contained in gas redoxH2(g) (which has 0.0 mass),
but is not in solution or other phases.
WARNING: Element Hzero is contained in gas redoxH2(g) (which has 0.0 mass),
but is not in solution or other phases.
WARNING: Element Hzero is contained in gas redoxH2(g) (which has 0.0 mass),
but is not in solution or other phases.
WARNING: Element Hzero is contained in gas redoxH2(g) (which has 0.0 mass),
but is not in solution or other phases.
WARNING: Element Hzero is contained in gas redoxH2(g) (which has 0.0 mass),
but is not in solution or other phases.
WARNING: Element Hzero is contained in gas redoxH2(g) (which has 0.0 mass),
but is not in solution or other phases.
WARNING: Element Hzero is contained in gas redoxH2(g) (which has 0.0 mass),
but is not in solution or other phases.
WARNING: Element Hzero is contained in gas redoxH2(g) (which has 0.0 mass),
but is not in solution or other phases.
WARNING: Element Hzero is contained in gas redoxH2(g) (which has 0.0 mass),
but is not in solution or other phases.
WARNING: Element Hzero is contained in gas redoxH2(g) (which has 0.0 mass),
but is not in solution or other phases.
WARNING: Element Hzero is contained in gas redoxH2(g) (which has 0.0 mass),
but is not in solution or other phases.
WARNING: Element Hzero is contained in gas redoxH2(g) (which has 0.0 mass),
but is not in solution or other phases.
WARNING: Element Hzero is contained in gas redoxH2(g) (which has 0.0 mass),
but is not in solution or other phases.
WARNING: Element Hzero is contained in gas redoxH2(g) (which has 0.0 mass),
but is not in solution or other phases.
WARNING: Element Hzero is contained in gas redoxH2(g) (which has 0.0 mass),
but is not in solution or other phases.
WARNING: Element Hzero is contained in gas redoxH2(g) (which has 0.0 mass),
but is not in solution or other phases.
WARNING: Element Hzero is contained in gas redoxH2(g) (which has 0.0 mass),
but is not in solution or other phases.
WARNING: Element Hzero is contained in gas redoxH2(g) (which has 0.0 mass),
but is not in solution or other phases.
WARNING: Element Hzero is contained in gas redoxH2(g) (which has 0.0 mass),
but is not in solution or other phases.
WARNING: Element Hzero is contained in gas redoxH2(g) (which has 0.0 mass),
but is not in solution or other phases.
Using solution 1.	
Using surface 1.	
Using pure phase assemblage 1.	
Using gas phase 1.	fixed volume gas phase
Using kinetics 1.	Decomposition

Kinetics 1.	Decomposition

	Time step: 24 seconds  (Incremented time: 24 seconds)

	Rate name       Delta Moles Total Moles   Reactant        Coefficient

	BA                1.368e-03   5.759e-01   CH2O                      0
	POM1              2.412e-04   4.088e+00   CH2O                      0
	POM2             -8.478e-04   1.941e+00   CH2O                      0
	MOM               1.016e-03   1.010e+01   CH2O                      0
	DOM1             -6.940e-04   2.089e-01   CH2O                      0
	DOM2              6.072e-04   3.691e-01   CH2O                      0
	QOM1              1.706e-04   5.542e-02   CH2O                      0
	QOM2              8.457e-04   1.153e+00   CH2O                      0
	EP1               3.500e-07   2.781e-04   CH2O                      0
	EP2               1.073e-07   1.345e-04   CH2O                      0
	EM                2.288e-07   2.063e-04   CH2O                      0
	respiration       1.132e-03   1.054e-01   CH2O                      0
	                                          Cl-                     -50
	                                          HCO3                -0.0005
	                                          Na+                     -50
	                                          Ozero2                  1.1
	Tot               2.708e-03   1.847e+01   CH2O                      0

-----------------------------------Gas phase-----------------------------------

Total pressure:  1.00      atmospheres 
    Gas volume:   5.00e-01 liters
  Molar volume:   2.45e+01 liters/mole

                                                        Moles in gas
                                            ----------------------------------
Component                log P           P     Initial       Final       Delta

redoxCH4(g)             -11.34   4.588e-12   0.000e+00   9.377e-14   9.377e-14
redoxCO2(g)              -3.49   3.226e-04   0.000e+00   6.594e-06   6.594e-06
redoxH2(g)              -99.99   0.000e+00   0.000e+00   0.000e+00   0.000e+00
redoxNH3(g)             -11.14   7.174e-12   0.000e+00   1.466e-13   1.466e-13
redoxO2(g)                0.00   1.000e+00   2.167e-02   2.044e-02  -1.229e-03

-------------------------------Phase assemblage--------------------------------

                                                      Moles in assemblage
Phase               SI  log IAP  log K(T, P)   Initial       Final       Delta

redoxFe(OH)3(a)   -0.00     4.89      4.89    5.671e-03   5.671e-03  -6.042e-08

------------------------------Surface composition------------------------------

Diffuse Double Layer Surface-Complexation Model

H             
	 -1.079e-02  Surface charge, eq
	 -1.219e-02  sigma, C/m²
	 -1.927e-02  psi, V
	  7.502e-01  -F*psi/RT
	  2.117e+00  exp(-F*psi/RT)
	  3.417e+04  specific area, m²/g
	  8.536e+04  m² for   2.498e+00 g


H_a           
	  1.774e-03  moles
	                                   Mole                     Log
	Species               Moles    Fraction    Molality    Molality

	H_a-              1.774e-03       1.000   1.774e-03      -2.751
	H_aH              1.519e-07       0.000   1.519e-07      -6.818
	H_aCa+            1.214e-07       0.000   1.214e-07      -6.916

H_ab          
	  2.948e-04  moles
	                                   Mole                     Log
	Species               Moles    Fraction    Molality    Molality

	H_ab-2            2.945e-04       0.999   2.945e-04      -3.531
	H_abH-            3.249e-07       0.001   3.249e-07      -6.488
	H_abCa            6.372e-09       0.000   6.372e-09      -8.196
	H_abH2            2.783e-11       0.000   2.783e-11     -10.555

H_ad          
	  2.948e-04  moles
	                                   Mole                     Log
	Species               Moles    Fraction    Molality    Molality

	H_ad-2            2.475e-04       0.840   2.475e-04      -3.606
	H_adH-            4.638e-05       0.157   4.638e-05      -4.334
	H_adCa            9.095e-07       0.003   9.095e-07      -6.041
	H_adH2            3.972e-09       0.000   3.972e-09      -8.401

H_af          
	  2.948e-04  moles
	                                   Mole                     Log
	Species               Moles    Fraction    Molality    Molality

	H_afH-            2.940e-04       0.997   2.940e-04      -3.532
	H_afCa            5.138e-07       0.002   5.138e-07      -6.289
	H_af-2            2.545e-07       0.001   2.545e-07      -6.594
	H_afH2            2.518e-08       0.000   2.518e-08      -7.599

H_ah          
	  2.948e-04  moles
	                                   Mole                     Log
	Species               Moles    Fraction    Molality    Molality

	H_ahH-            2.948e-04       1.000   2.948e-04      -3.531
	H_ahH2            2.525e-08       0.000   2.525e-08      -7.598
	H_ahCa            9.161e-10       0.000   9.161e-10      -9.038
	H_ah-2            5.330e-11       0.000   5.330e-11     -10.273

H_b           
	  1.774e-03  moles
	                                   Mole                     Log
	Species               Moles    Fraction    Molality    Molality

	H_b-              1.770e-03       0.998   1.770e-03      -2.752
	H_bH              1.954e-06       0.001   1.954e-06      -5.709
	H_bCa+            1.561e-06       0.001   1.561e-06      -5.807

H_bc          
	  2.948e-04  moles
	                                   Mole                     Log
	Species               Moles    Fraction    Molality    Molality

	H_bc-2            2.895e-04       0.982   2.895e-04      -3.538
	H_bcH-            4.211e-06       0.014   4.211e-06      -5.376
	H_bcCa            1.064e-06       0.004   1.064e-06      -5.973
	H_bcH2            4.647e-09       0.000   4.647e-09      -8.333

H_be          
	  2.948e-04  moles
	                                   Mole                     Log
	Species               Moles    Fraction    Molality    Molality

	H_beH-            2.778e-04       0.942   2.778e-04      -3.556
	H_be-2            1.664e-05       0.056   1.664e-05      -4.779
	H_beH2            3.066e-07       0.001   3.066e-07      -6.513
	H_beCa            1.112e-08       0.000   1.112e-08      -7.954

H_bg          
	  2.948e-04  moles
	                                   Mole                     Log
	Species               Moles    Fraction    Molality    Molality

	H_bgH-            2.945e-04       0.999   2.945e-04      -3.531
	H_bgH2            3.249e-07       0.001   3.249e-07      -6.488
	H_bgCa            1.179e-08       0.000   1.179e-08      -7.928
	H_bg-2            3.684e-09       0.000   3.684e-09      -8.434

H_c           
	  1.774e-03  moles
	                                   Mole                     Log
	Species               Moles    Fraction    Molality    Molality

	H_c-              1.729e-03       0.975   1.729e-03      -2.762
	H_cH              2.515e-05       0.014   2.515e-05      -4.600
	H_cCa+            2.009e-05       0.011   2.009e-05      -4.697

H_cd          
	  2.948e-04  moles
	                                   Mole                     Log
	Species               Moles    Fraction    Molality    Molality

	H_cd-2            1.625e-04       0.551   1.625e-04      -3.789
	H_cdCa            1.014e-04       0.344   1.014e-04      -3.994
	H_cdH-            3.045e-05       0.103   3.045e-05      -4.516
	H_cdH2            4.429e-07       0.002   4.429e-07      -6.354

H_cf          
	  2.948e-04  moles
	                                   Mole                     Log
	Species               Moles    Fraction    Molality    Molality

	H_cfH-            2.902e-04       0.984   2.902e-04      -3.537
	H_cfH2            4.221e-06       0.014   4.221e-06      -5.375
	H_cf-2            2.511e-07       0.001   2.511e-07      -6.600
	H_cfCa            1.532e-07       0.001   1.532e-07      -6.815

H_ch          
	  2.948e-04  moles
	                                   Mole                     Log
	Species               Moles    Fraction    Molality    Molality

	H_chH-            2.904e-04       0.985   2.904e-04      -3.537
	H_chH2            4.224e-06       0.014   4.224e-06      -5.374
	H_chCa            1.533e-07       0.001   1.533e-07      -6.814
	H_ch-2            5.252e-11       0.000   5.252e-11     -10.280

H_d           
	  1.774e-03  moles
	                                   Mole                     Log
	Species               Moles    Fraction    Molality    Molality

	H_d-              1.327e-03       0.748   1.327e-03      -2.877
	H_dH              2.486e-04       0.140   2.486e-04      -3.604
	H_dCa+            1.986e-04       0.112   1.986e-04      -3.702

H_de          
	  2.948e-04  moles
	                                   Mole                     Log
	Species               Moles    Fraction    Molality    Molality

	H_deH-            2.351e-04       0.797   2.351e-04      -3.629
	H_deH2            4.405e-05       0.149   4.405e-05      -4.356
	H_de-2            1.408e-05       0.048   1.408e-05      -4.852
	H_deCa            1.598e-06       0.005   1.598e-06      -5.796

H_dg          
	  2.948e-04  moles
	                                   Mole                     Log
	Species               Moles    Fraction    Molality    Molality

	H_dgH-            2.469e-04       0.837   2.469e-04      -3.608
	H_dgH2            4.626e-05       0.157   4.626e-05      -4.335
	H_dgCa            1.679e-06       0.006   1.679e-06      -5.775
	H_dg-2            3.088e-09       0.000   3.088e-09      -8.510

H_e           
	  8.869e-04  moles
	                                   Mole                     Log
	Species               Moles    Fraction    Molality    Molality

	H_eH              8.367e-04       0.943   8.367e-04      -3.077
	H_e-              5.010e-05       0.056   5.010e-05      -4.300
	H_eCa+            1.084e-07       0.000   1.084e-07      -6.965

H_f           
	  8.869e-04  moles
	                                   Mole                     Log
	Species               Moles    Fraction    Molality    Molality

	H_fH              8.860e-04       0.999   8.860e-04      -3.053
	H_f-              7.668e-07       0.001   7.668e-07      -6.115
	H_fCa+            1.148e-07       0.000   1.148e-07      -6.940

H_g           
	  8.869e-04  moles
	                                   Mole                     Log
	Species               Moles    Fraction    Molality    Molality

	H_gH              8.868e-04       1.000   8.868e-04      -3.052
	H_gCa+            1.149e-07       0.000   1.149e-07      -6.940
	H_g-              1.109e-08       0.000   1.109e-08      -7.955

H_h           
	  8.869e-04  moles
	                                   Mole                     Log
	Species               Moles    Fraction    Molality    Molality

	H_hH              8.868e-04       1.000   8.868e-04      -3.052
	H_hCa+            1.149e-07       0.000   1.149e-07      -6.940
	H_h-              1.604e-10       0.000   1.604e-10      -9.795

Hfo           
	  1.001e-04  Surface charge, eq
	  1.594e-01  sigma, C/m²
	  1.190e-01  psi, V
	 -4.633e+00  -F*psi/RT
	  9.727e-03  exp(-F*psi/RT)
	  1.068e+04  specific area, m²/mol redoxFe(OH)3(a)
	  6.056e+01  m² for   5.671e-03 moles of redoxFe(OH)3(a)


Hfo_s         
	  2.835e-05  moles	[0.005 mol/(mol redoxFe(OH)3(a))]
	                                   Mole                     Log
	Species               Moles    Fraction    Molality    Molality

	Hfo_sOFerrous+    1.626e-05       0.574   1.626e-05      -4.789
	Hfo_sOH           9.167e-06       0.323   9.167e-06      -5.038
	Hfo_sOH2+         1.808e-06       0.064   1.808e-06      -5.743
	Hfo_sO-           1.065e-06       0.038   1.065e-06      -5.973
	Hfo_sOHCa+2       5.033e-08       0.002   5.033e-08      -7.298

Hfo_w         
	  1.134e-03  moles	[0.2 mol/(mol redoxFe(OH)3(a))]
	                                   Mole                     Log
	Species               Moles    Fraction    Molality    Molality

	Hfo_wOH           8.499e-04       0.749   8.499e-04      -3.071
	Hfo_wOH2+         1.676e-04       0.148   1.676e-04      -3.776
	Hfo_wO-           9.874e-05       0.087   9.874e-05      -4.006
	Hfo_wOFerrous+    1.407e-05       0.012   1.407e-05      -4.852
	Hfo_wOFerrousOH   3.736e-06       0.003   3.736e-06      -5.428
	Hfo_wOCa+         6.983e-09       0.000   6.983e-09      -8.156

-----------------------------Solution composition------------------------------

	Elements           Molality       Moles

	Acetate           4.380e-03   4.380e-03
	Amm               1.000e-06   1.000e-06
	C                 1.778e-05   1.778e-05
	Ca                1.458e-03   1.458e-03
	Cl                6.339e-02   6.339e-02
	Ferric            2.394e-07   2.394e-07
	Ferrous           4.019e-03   4.019e-03
	Glucose           5.400e-04   5.400e-04
	Methane           6.228e-15   6.228e-15
	Na                5.761e-02   5.761e-02
	Ozero             2.521e-03   2.521e-03

----------------------------Description of solution----------------------------

                                       pH  =   5.983      Charge balance
                                       pe  =  13.829      Adjusted to redox equilibrium
      Specific Conductance (µS/cm,  25°C)  = 6981
                        Activity of water  =   0.998
                 Ionic strength (mol/kgw)  =   7.326e-02
                       Mass of water (kg)  =   1.000e+00
                 Total alkalinity (eq/kg)  =   4.191e-03
                       Total CO2 (mol/kg)  =   1.778e-05
                         Temperature (°C)  =  25.00
                           Pressure (atm)  =  1.00
                  Electrical balance (eq)  =   9.784e-04
 Percent error, 100*(Cat-|An|)/(Cat+|An|)  =   0.72
                               Iterations  = 1527
                                  Total H  = 1.110127e+02
                                  Total O  = 5.550627e+01

----------------------------Distribution of species----------------------------

                                               Log       Log       Log    mole V
   Species          Molality    Activity  Molality  Activity     Gamma   cm³/mol

   H+              1.241e-06   1.040e-06    -5.906    -5.983    -0.077      0.00
   OH-             1.224e-08   9.607e-09    -7.912    -8.017    -0.105     (0)  
   H2O             5.551e+01   9.977e-01     1.744    -0.001     0.000     18.07
Acetate       4.380e-03
   Acetate-        4.185e-03   3.344e-03    -2.378    -2.476    -0.097     (0)  
   HAcetate        1.954e-04   1.987e-04    -3.709    -3.702     0.007     (0)  
Amm           1.000e-06
   AmmH4+          9.996e-07   7.707e-07    -6.000    -6.113    -0.113     (0)  
   AmmH3           4.153e-10   4.224e-10    -9.382    -9.374     0.007     (0)  
C(4)          1.778e-05
   CO2             1.080e-05   1.098e-05    -4.967    -4.959     0.007     (0)  
   HCO3-           5.811e-06   4.688e-06    -5.236    -5.329    -0.093     (0)  
   FerrousHCO3+    9.916e-07   7.923e-07    -6.004    -6.101    -0.097     (0)  
   NaHCO3          1.196e-07   1.217e-07    -6.922    -6.915     0.007     (0)  
   CaHCO3+         4.610e-08   3.719e-08    -7.336    -7.430    -0.093     (0)  
   FerrousCO3      8.430e-09   8.573e-09    -8.074    -8.067     0.007     (0)  
   CO3-2           4.992e-10   2.115e-10    -9.302    -9.675    -0.373     (0)  
   NaCO3-          2.274e-10   1.817e-10    -9.643    -9.741    -0.097     (0)  
   CaCO3           2.172e-10   2.209e-10    -9.663    -9.656     0.007     (0)  
Ca            1.458e-03
   Ca+2            1.458e-03   6.217e-04    -2.836    -3.206    -0.370     (0)  
   CaHCO3+         4.610e-08   3.719e-08    -7.336    -7.430    -0.093     (0)  
   CaCO3           2.172e-10   2.209e-10    -9.663    -9.656     0.007     (0)  
   CaOH+           1.239e-10   9.901e-11    -9.907   -10.004    -0.097     (0)  
Cl            6.339e-02
   Cl-             6.325e-02   4.976e-02    -1.199    -1.303    -0.104     (0)  
   FerrousCl+      1.453e-04   1.161e-04    -3.838    -3.935    -0.097     (0)  
   FerricCl+2      3.246e-13   1.323e-13   -12.489   -12.878    -0.390     (0)  
   FerricCl2+      3.680e-14   2.941e-14   -13.434   -13.532    -0.097     (0)  
   FerricCl3       1.439e-16   1.463e-16   -15.842   -15.835     0.007     (0)  
Ferric        2.394e-07
   Ferric(OH)2+    2.169e-07   1.733e-07    -6.664    -6.761    -0.097     (0)  
   Ferric(OH)3     2.107e-08   2.143e-08    -7.676    -7.669     0.007     (0)  
   FerricOH+2      1.338e-09   5.455e-10    -8.873    -9.263    -0.390     (0)  
   Ferric(OH)4-    2.347e-11   1.875e-11   -10.629   -10.727    -0.097     (0)  
   Ferric+3        4.314e-13   8.804e-14   -12.365   -13.055    -0.690     (0)  
   FerricCl+2      3.246e-13   1.323e-13   -12.489   -12.878    -0.390     (0)  
   FerricCl2+      3.680e-14   2.941e-14   -13.434   -13.532    -0.097     (0)  
   Ferric2(OH)2+4   2.901e-16   8.009e-18   -15.538   -17.096    -1.559     (0)  
   FerricCl3       1.439e-16   1.463e-16   -15.842   -15.835     0.007     (0)  
   Ferric3(OH)4+5   7.912e-20   2.901e-22   -19.102   -21.537    -2.436     (0)  
Ferrous       4.019e-03
   Ferrous+2       3.872e-03   1.690e-03    -2.412    -2.772    -0.360     (0)  
   FerrousCl+      1.453e-04   1.161e-04    -3.838    -3.935    -0.097     (0)  
   FerrousHCO3+    9.916e-07   7.923e-07    -6.004    -6.101    -0.097     (0)  
   FerrousOH+      6.418e-07   5.128e-07    -6.193    -6.290    -0.097     (0)  
   FerrousCO3      8.430e-09   8.573e-09    -8.074    -8.067     0.007     (0)  
Glucose       5.400e-04
   Glucose         5.400e-04   5.492e-04    -3.268    -3.260     0.007     (0)  
H(0)          0.000e+00
   H2              0.000e+00   0.000e+00   -42.782   -42.775     0.007     (0)  
Methane       6.228e-15
   MethaneH4       6.228e-15   6.334e-15   -14.206   -14.198     0.007     (0)  
Na            5.761e-02
   Na+             5.761e-02   4.615e-02    -1.240    -1.336    -0.096     (0)  
   NaHCO3          1.196e-07   1.217e-07    -6.922    -6.915     0.007     (0)  
   NaOH            2.877e-10   2.926e-10    -9.541    -9.534     0.007     (0)  
   NaCO3-          2.274e-10   1.817e-10    -9.643    -9.741    -0.097     (0)  
O(0)          2.893e-07
   O2              1.447e-07   1.471e-07    -6.840    -6.832     0.007     (0)  
Ozero         2.521e-03
   Ozero2          1.260e-03   1.282e-03    -2.900    -2.892     0.007     (0)  

------------------------------Saturation indices-------------------------------

  Phase               SI** log IAP   log K(298 K,   1 atm)

  FeRA           1027.19   -401.19-1428.38  C5H4O2Amm
  FixpH            -5.98     -5.98    0.00  H+
  H2(g)           -39.62    -42.77   -3.15  H2
  H2O(g)           -1.51     -0.00    1.51  H2O
  Halite           -4.22     -2.64    1.58  NaCl
  MeGA           1913.21   1703.96 -209.25  C5H4O2Amm
  ORA             487.42      8.99 -478.43  C5H4O2Amm
  ORM             758.95   -120.28 -879.23  C5H4O2Amm
  redoxAragonite   -4.55    -12.88   -8.34  CaCO3
  redoxCalcite     -4.40    -12.88   -8.48  CaCO3
  redoxCH4(g)     -11.34    -14.20   -2.86  MethaneH4
  redoxCO2(g)      -3.49     -4.96   -1.47  CO2
  redoxFe(OH)3(a)  -0.00      4.89    4.89  Ferric(OH)3
  redoxGoethite     5.89      4.89   -1.00  FerricOOH
  redoxHematite    13.79      9.78   -4.01  Ferric2O3
  redoxNH3(g)     -11.14     -9.37    1.77  AmmH3
  redoxO2(g)        0.00     -2.89   -2.89  Ozero2
  redoxSiderite    -1.56    -12.45  -10.89  FerrousCO3

**For a gas, SI = log10(fugacity). Fugacity = pressure * phi / 1 atm.
  For ideal gases, phi = 1.

Reaction step 2.

Using solution 1.	
Using surface 1.	
Using pure phase assemblage 1.	
Using gas phase 1.	fixed volume gas phase
Using kinetics 1.	Decomposition

Kinetics 1.	Decomposition

	Time step: 24 seconds  (Incremented time: 48 seconds)

	Rate name       Delta Moles Total Moles   Reactant        Coefficient

	BA                1.343e-03   5.773e-01   CH2O                      0
	POM1              2.492e-04   4.088e+00   CH2O                      0
	POM2             -8.353e-04   1.940e+00   CH2O                      0
	MOM               1.006e-03   1.010e+01   CH2O                      0
	DOM1             -5.665e-04   2.083e-01   CH2O                      0
	DOM2              6.156e-04   3.697e-01   CH2O                      0
	QOM1              6.873e-05   5.549e-02   CH2O                      0
	QOM2              8.359e-04   1.153e+00   CH2O                      0
	EP1               3.591e-07   2.785e-04   CH2O                      0
	EP2               1.114e-07   1.346e-04   CH2O                      0
	EM                2.354e-07   2.065e-04   CH2O                      0
	respiration       1.122e-03   1.066e-01   CH2O                      0
	                                          Cl-                     -50
	                                          HCO3                -0.0005
	                                          Na+                     -50
	                                          Ozero2                  1.1
	Tot               2.718e-03   1.848e+01   CH2O                      0

-----------------------------------Gas phase-----------------------------------

Total pressure:  0.94      atmospheres 
    Gas volume:   5.00e-01 liters
  Molar volume:   2.59e+01 liters/mole

                                                        Moles in gas
                                            ----------------------------------
Component                log P           P     Initial       Final       Delta

redoxCH4(g)             -11.34   4.592e-12   9.377e-14   9.385e-14   7.509e-17
redoxCO2(g)              -3.48   3.343e-04   6.594e-06   6.833e-06   2.392e-07
redoxH2(g)              -99.99   0.000e+00   0.000e+00   0.000e+00   0.000e+00
redoxNH3(g)             -11.20   6.354e-12   1.466e-13   1.299e-13  -1.675e-14
redoxO2(g)               -0.02   9.441e-01   2.044e-02   1.929e-02  -1.148e-03

-------------------------------Phase assemblage--------------------------------

                                                      Moles in assemblage
Phase               SI  log IAP  log K(T, P)   Initial       Final       Delta

redoxFe(OH)3(a)    0.00     4.89      4.89    5.671e-03   5.671e-03  -2.248e-08

------------------------------Surface composition------------------------------

Diffuse Double Layer Surface-Complexation Model

H             
	 -1.102e-02  Surface charge, eq
	 -1.246e-02  sigma, C/m²
	 -1.495e-02  psi, V
	  5.820e-01  -F*psi/RT
	  1.790e+00  exp(-F*psi/RT)
	  3.417e+04  specific area, m²/g
	  8.536e+04  m² for   2.498e+00 g


H_a           
	  1.774e-03  moles
	                                   Mole                     Log
	Species               Moles    Fraction    Molality    Molality

	H_a-              1.774e-03       1.000   1.774e-03      -2.751
	H_aH              1.357e-07       0.000   1.357e-07      -6.867
	H_aCa+            7.875e-08       0.000   7.875e-08      -7.104

H_ab          
	  2.948e-04  moles
	                                   Mole                     Log
	Species               Moles    Fraction    Molality    Molality

	H_ab-2            2.945e-04       0.999   2.945e-04      -3.531
	H_abH-            2.903e-07       0.001   2.903e-07      -6.537
	H_abCa            4.135e-09       0.000   4.135e-09      -8.384
	H_abH2            2.221e-11       0.000   2.221e-11     -10.654

H_ad          
	  2.948e-04  moles
	                                   Mole                     Log
	Species               Moles    Fraction    Molality    Molality

	H_ad-2            2.520e-04       0.855   2.520e-04      -3.599
	H_adH-            4.218e-05       0.143   4.218e-05      -4.375
	H_adCa            6.009e-07       0.002   6.009e-07      -6.221
	H_adH2            3.227e-09       0.000   3.227e-09      -8.491

H_af          
	  2.948e-04  moles
	                                   Mole                     Log
	Species               Moles    Fraction    Molality    Molality

	H_afH-            2.941e-04       0.998   2.941e-04      -3.531
	H_afCa            3.734e-07       0.001   3.734e-07      -6.428
	H_af-2            2.850e-07       0.001   2.850e-07      -6.545
	H_afH2            2.250e-08       0.000   2.250e-08      -7.648

H_ah          
	  2.948e-04  moles
	                                   Mole                     Log
	Species               Moles    Fraction    Molality    Molality

	H_ahH-            2.948e-04       1.000   2.948e-04      -3.531
	H_ahH2            2.255e-08       0.000   2.255e-08      -7.647
	H_ahCa            6.655e-10       0.000   6.655e-10      -9.177
	H_ah-2            5.968e-11       0.000   5.968e-11     -10.224

H_b           
	  1.774e-03  moles
	                                   Mole                     Log
	Species               Moles    Fraction    Molality    Molality

	H_b-              1.771e-03       0.998   1.771e-03      -2.752
	H_bH              1.746e-06       0.001   1.746e-06      -5.758
	H_bCa+            1.013e-06       0.001   1.013e-06      -5.994

H_bc          
	  2.948e-04  moles
	                                   Mole                     Log
	Species               Moles    Fraction    Molality    Molality

	H_bc-2            2.903e-04       0.985   2.903e-04      -3.537
	H_bcH-            3.772e-06       0.013   3.772e-06      -5.423
	H_bcCa            6.923e-07       0.002   6.923e-07      -6.160
	H_bcH2            3.718e-09       0.000   3.718e-09      -8.430

H_be          
	  2.948e-04  moles
	                                   Mole                     Log
	Species               Moles    Fraction    Molality    Molality

	H_beH-            2.760e-04       0.936   2.760e-04      -3.559
	H_be-2            1.850e-05       0.063   1.850e-05      -4.733
	H_beH2            2.720e-07       0.001   2.720e-07      -6.565
	H_beCa            8.028e-09       0.000   8.028e-09      -8.095

H_bg          
	  2.948e-04  moles
	                                   Mole                     Log
	Species               Moles    Fraction    Molality    Molality

	H_bgH-            2.945e-04       0.999   2.945e-04      -3.531
	H_bgH2            2.902e-07       0.001   2.902e-07      -6.537
	H_bgCa            8.566e-09       0.000   8.566e-09      -8.067
	H_bg-2            4.125e-09       0.000   4.125e-09      -8.385

H_c           
	  1.774e-03  moles
	                                   Mole                     Log
	Species               Moles    Fraction    Molality    Molality

	H_c-              1.738e-03       0.980   1.738e-03      -2.760
	H_cH              2.258e-05       0.013   2.258e-05      -4.646
	H_cCa+            1.311e-05       0.007   1.311e-05      -4.883

H_cd          
	  2.948e-04  moles
	                                   Mole                     Log
	Species               Moles    Fraction    Molality    Molality

	H_cd-2            1.872e-04       0.635   1.872e-04      -3.728
	H_cdCa            7.582e-05       0.257   7.582e-05      -4.120
	H_cdH-            3.134e-05       0.106   3.134e-05      -4.504
	H_cdH2            4.072e-07       0.001   4.072e-07      -6.390

H_cf          
	  2.948e-04  moles
	                                   Mole                     Log
	Species               Moles    Fraction    Molality    Molality

	H_cfH-            2.906e-04       0.986   2.906e-04      -3.537
	H_cfH2            3.776e-06       0.013   3.776e-06      -5.423
	H_cf-2            2.816e-07       0.001   2.816e-07      -6.550
	H_cfCa            1.114e-07       0.000   1.114e-07      -6.953

H_ch          
	  2.948e-04  moles
	                                   Mole                     Log
	Species               Moles    Fraction    Molality    Molality

	H_chH-            2.909e-04       0.987   2.909e-04      -3.536
	H_chH2            3.780e-06       0.013   3.780e-06      -5.423
	H_chCa            1.115e-07       0.000   1.115e-07      -6.953
	H_ch-2            5.889e-11       0.000   5.889e-11     -10.230

H_d           
	  1.774e-03  moles
	                                   Mole                     Log
	Species               Moles    Fraction    Molality    Molality

	H_d-              1.403e-03       0.791   1.403e-03      -2.853
	H_dH              2.348e-04       0.132   2.348e-04      -3.629
	H_dCa+            1.363e-04       0.077   1.363e-04      -3.866

H_de          
	  2.948e-04  moles
	                                   Mole                     Log
	Species               Moles    Fraction    Molality    Molality

	H_deH-            2.379e-04       0.807   2.379e-04      -3.624
	H_deH2            3.981e-05       0.135   3.981e-05      -4.400
	H_de-2            1.595e-05       0.054   1.595e-05      -4.797
	H_deCa            1.175e-06       0.004   1.175e-06      -5.930

H_dg          
	  2.948e-04  moles
	                                   Mole                     Log
	Species               Moles    Fraction    Molality    Molality

	H_dgH-            2.515e-04       0.853   2.515e-04      -3.600
	H_dgH2            4.209e-05       0.143   4.209e-05      -4.376
	H_dgCa            1.242e-06       0.004   1.242e-06      -5.906
	H_dg-2            3.522e-09       0.000   3.522e-09      -8.453

H_e           
	  8.869e-04  moles
	                                   Mole                     Log
	Species               Moles    Fraction    Molality    Molality

	H_eH              8.311e-04       0.937   8.311e-04      -3.080
	H_e-              5.572e-05       0.063   5.572e-05      -4.254
	H_eCa+            7.822e-08       0.000   7.822e-08      -7.107

H_f           
	  8.869e-04  moles
	                                   Mole                     Log
	Species               Moles    Fraction    Molality    Molality

	H_fH              8.860e-04       0.999   8.860e-04      -3.053
	H_f-              8.585e-07       0.001   8.585e-07      -6.066
	H_fCa+            8.339e-08       0.000   8.339e-08      -7.079

H_g           
	  8.869e-04  moles
	                                   Mole                     Log
	Species               Moles    Fraction    Molality    Molality

	H_gH              8.868e-04       1.000   8.868e-04      -3.052
	H_gCa+            8.347e-08       0.000   8.347e-08      -7.078
	H_g-              1.242e-08       0.000   1.242e-08      -7.906

H_h           
	  8.869e-04  moles
	                                   Mole                     Log
	Species               Moles    Fraction    Molality    Molality

	H_hH              8.868e-04       1.000   8.868e-04      -3.052
	H_hCa+            8.347e-08       0.000   8.347e-08      -7.078
	H_h-              1.795e-10       0.000   1.795e-10      -9.746

Hfo           
	  1.287e-04  Surface charge, eq
	  2.051e-01  sigma, C/m²
	  1.174e-01  psi, V
	 -4.569e+00  -F*psi/RT
	  1.037e-02  exp(-F*psi/RT)
	  1.068e+04  specific area, m²/mol redoxFe(OH)3(a)
	  6.056e+01  m² for   5.671e-03 moles of redoxFe(OH)3(a)


Hfo_s         
	  2.835e-05  moles	[0.005 mol/(mol redoxFe(OH)3(a))]
	                                   Mole                     Log
	Species               Moles    Fraction    Molality    Molality

	Hfo_sOFerrous+    1.500e-05       0.529   1.500e-05      -4.824
	Hfo_sOH           1.003e-05       0.354   1.003e-05      -4.999
	Hfo_sOH2+         2.229e-06       0.079   2.229e-06      -5.652
	Hfo_sO-           1.034e-06       0.036   1.034e-06      -5.985
	Hfo_sOHCa+2       5.686e-08       0.002   5.686e-08      -7.245

Hfo_w         
	  1.134e-03  moles	[0.2 mol/(mol redoxFe(OH)3(a))]
	                                   Mole                     Log
	Species               Moles    Fraction    Molality    Molality

	Hfo_wOH           8.447e-04       0.745   8.447e-04      -3.073
	Hfo_wOH2+         1.877e-04       0.166   1.877e-04      -3.727
	Hfo_wO-           8.710e-05       0.077   8.710e-05      -4.060
	Hfo_wOFerrous+    1.179e-05       0.010   1.179e-05      -4.928
	Hfo_wOFerrousOH   2.773e-06       0.002   2.773e-06      -5.557
	Hfo_wOCa+         6.360e-09       0.000   6.360e-09      -8.197

-----------------------------Solution composition------------------------------

	Elements           Molality       Moles

	Acetate           4.380e-03   4.380e-03
	Amm               1.000e-06   1.000e-06
	C                 1.810e-05   1.810e-05
	Ca                1.555e-03   1.555e-03
	Cl                1.195e-01   1.195e-01
	Ferric            2.619e-07   2.619e-07
	Ferrous           4.024e-03   4.024e-03
	Glucose           5.400e-04   5.400e-04
	Methane           6.153e-15   6.153e-15
	Na                1.137e-01   1.137e-01
	Ozero             2.348e-03   2.348e-03

----------------------------Description of solution----------------------------

                                       pH  =   5.959      Charge balance
                                       pe  =  13.929      Adjusted to redox equilibrium
      Specific Conductance (µS/cm,  25°C)  = 12482
                        Activity of water  =   0.996
                 Ionic strength (mol/kgw)  =   1.294e-01
                       Mass of water (kg)  =   1.000e+00
                 Total alkalinity (eq/kg)  =   4.191e-03
                       Total CO2 (mol/kg)  =   1.810e-05
                         Temperature (°C)  =  25.00
                           Pressure (atm)  =  0.94
                  Electrical balance (eq)  =   1.183e-03
 Percent error, 100*(Cat-|An|)/(Cat+|An|)  =   0.48
                               Iterations  = 187
                                  Total H  = 1.110127e+02
                                  Total O  = 5.550627e+01

----------------------------Distribution of species----------------------------

                                               Log       Log       Log    mole V
   Species          Molality    Activity  Molality  Activity     Gamma   cm³/mol

   H+              1.348e-06   1.099e-06    -5.870    -5.959    -0.089      0.00
   OH-             1.223e-08   9.073e-09    -7.912    -8.042    -0.130     (0)  
   H2O             5.551e+01   9.958e-01     1.744    -0.002     0.000     18.07
Acetate       4.380e-03
   Acetate-        4.184e-03   3.210e-03    -2.378    -2.494    -0.115     (0)  
   HAcetate        1.956e-04   2.016e-04    -3.709    -3.696     0.013     (0)  
Amm           1.000e-06
   AmmH4+          9.996e-07   7.215e-07    -6.000    -6.142    -0.142     (0)  
   AmmH3           3.632e-10   3.742e-10    -9.440    -9.427     0.013     (0)  
C(4)          1.810e-05
   CO2             1.105e-05   1.138e-05    -4.957    -4.944     0.013     (0)  
   HCO3-           5.938e-06   4.588e-06    -5.226    -5.338    -0.112     (0)  
   FerrousHCO3+    8.448e-07   6.481e-07    -6.073    -6.188    -0.115     (0)  
   NaHCO3          2.186e-07   2.252e-07    -6.660    -6.647     0.013     (0)  
   CaHCO3+         4.279e-08   3.306e-08    -7.369    -7.481    -0.112     (0)  
   FerrousCO3      6.440e-09   6.635e-09    -8.191    -8.178     0.013     (0)  
   CO3-2           5.494e-10   1.958e-10    -9.260    -9.708    -0.448     (0)  
   NaCO3-          4.149e-10   3.183e-10    -9.382    -9.497    -0.115     (0)  
   CaCO3           1.803e-10   1.858e-10    -9.744    -9.731     0.013     (0)  
Ca            1.555e-03
   Ca+2            1.555e-03   5.647e-04    -2.808    -3.248    -0.440     (0)  
   CaHCO3+         4.279e-08   3.306e-08    -7.369    -7.481    -0.112     (0)  
   CaCO3           1.803e-10   1.858e-10    -9.744    -9.731     0.013     (0)  
   CaOH+           1.107e-10   8.494e-11    -9.956   -10.071    -0.115     (0)  
Cl            1.195e-01
   Cl-             1.193e-01   8.886e-02    -0.923    -1.051    -0.128     (0)  
   FerrousCl+      2.258e-04   1.733e-04    -3.646    -3.761    -0.115     (0)  
   FerricCl+2      8.100e-13   2.805e-13   -12.092   -12.552    -0.461     (0)  
   FerricCl2+      1.451e-13   1.113e-13   -12.838   -12.953    -0.115     (0)  
   FerricCl3       9.604e-16   9.894e-16   -15.018   -15.005     0.013     (0)  
Ferric        2.619e-07
   Ferric(OH)2+    2.393e-07   1.835e-07    -6.621    -6.736    -0.115     (0)  
   Ferric(OH)3     2.080e-08   2.143e-08    -7.682    -7.669     0.013     (0)  
   FerricOH+2      1.766e-09   6.116e-10    -8.753    -9.214    -0.461     (0)  
   Ferric(OH)4-    2.309e-11   1.771e-11   -10.637   -10.752    -0.115     (0)  
   FerricCl+2      8.100e-13   2.805e-13   -12.092   -12.552    -0.461     (0)  
   Ferric+3        6.598e-13   1.045e-13   -12.181   -12.981    -0.800     (0)  
   FerricCl2+      1.451e-13   1.113e-13   -12.838   -12.953    -0.115     (0)  
   FerricCl3       9.604e-16   9.894e-16   -15.018   -15.005     0.013     (0)  
   Ferric2(OH)2+4   7.000e-16   1.007e-17   -15.155   -16.997    -1.842     (0)  
   Ferric3(OH)4+5   2.918e-19   3.861e-22   -18.535   -21.413    -2.878     (0)  
Ferrous       4.024e-03
   Ferrous+2       3.797e-03   1.412e-03    -2.421    -2.850    -0.429     (0)  
   FerrousCl+      2.258e-04   1.733e-04    -3.646    -3.761    -0.115     (0)  
   FerrousHCO3+    8.448e-07   6.481e-07    -6.073    -6.188    -0.115     (0)  
   FerrousOH+      5.277e-07   4.048e-07    -6.278    -6.393    -0.115     (0)  
   FerrousCO3      6.440e-09   6.635e-09    -8.191    -8.178     0.013     (0)  
Glucose       5.400e-04
   Glucose         5.400e-04   5.563e-04    -3.268    -3.255     0.013     (0)  
H(0)          0.000e+00
   H2              0.000e+00   0.000e+00   -42.939   -42.927     0.013     (0)  
Methane       6.153e-15
   MethaneH4       6.153e-15   6.339e-15   -14.211   -14.198     0.013     (0)  
Na            1.137e-01
   Na+             1.137e-01   8.729e-02    -0.944    -1.059    -0.115     (0)  
   NaHCO3          2.186e-07   2.252e-07    -6.660    -6.647     0.013     (0)  
   NaOH            5.073e-10   5.227e-10    -9.295    -9.282     0.013     (0)  
   NaCO3-          4.149e-10   3.183e-10    -9.382    -9.497    -0.115     (0)  
O(0)          5.722e-07
   O2              2.861e-07   2.948e-07    -6.543    -6.531     0.013     (0)  
Ozero         2.348e-03
   Ozero2          1.174e-03   1.210e-03    -2.930    -2.917     0.013     (0)  

------------------------------Saturation indices-------------------------------

  Phase               SI** log IAP   log K(298 K,   1 atm)

  FeRA           1045.95   -382.43-1428.38  C5H4O2Amm
  FixpH            -5.96     -5.96    0.00  H+
  H2(g)           -39.78    -42.93   -3.15  H2
  H2O(g)           -1.51     -0.00    1.51  H2O
  Halite           -3.69     -2.11    1.58  NaCl
  MeGA           1912.21   1702.96 -209.25  C5H4O2Amm
  ORA             487.12      8.69 -478.43  C5H4O2Amm
  ORM             758.53   -120.70 -879.23  C5H4O2Amm
  redoxAragonite   -4.62    -12.96   -8.34  CaCO3
  redoxCalcite     -4.48    -12.96   -8.48  CaCO3
  redoxCH4(g)     -11.34    -14.20   -2.86  MethaneH4
  redoxCO2(g)      -3.48     -4.94   -1.47  CO2
  redoxFe(OH)3(a)   0.00      4.89    4.89  Ferric(OH)3
  redoxGoethite     5.89      4.89   -1.00  FerricOOH
  redoxHematite    13.80      9.79   -4.01  Ferric2O3
  redoxNH3(g)     -11.20     -9.43    1.77  AmmH3
  redoxO2(g)       -0.02     -2.92   -2.89  Ozero2
  redoxSiderite    -1.67    -12.56  -10.89  FerrousCO3

**For a gas, SI = log10(fugacity). Fugacity = pressure * phi / 1 atm.
  For ideal gases, phi = 1.

Reaction step 3.

Using solution 1.	
Using surface 1.	
Using pure phase assemblage 1.	
Using gas phase 1.	fixed volume gas phase
Using kinetics 1.	Decomposition

Kinetics 1.	Decomposition

	Time step: 24 seconds  (Incremented time: 72 seconds)

	Rate name       Delta Moles Total Moles   Reactant        Coefficient

	BA                1.332e-03   5.786e-01   CH2O                      0
	POM1              2.528e-04   4.088e+00   CH2O                      0
	POM2             -8.306e-04   1.940e+00   CH2O                      0
	MOM               1.003e-03   1.010e+01   CH2O                      0
	DOM1             -5.009e-04   2.078e-01   CH2O                      0
	DOM2              6.233e-04   3.703e-01   CH2O                      0
	QOM1              1.393e-05   5.550e-02   CH2O                      0
	QOM2              8.268e-04   1.154e+00   CH2O                      0
	EP1               3.679e-07   2.788e-04   CH2O                      0
	EP2               1.153e-07   1.348e-04   CH2O                      0
	EM                2.417e-07   2.068e-04   CH2O                      0
	respiration       1.119e-03   1.077e-01   CH2O                      0
	                                          Cl-                     -50
	                                          HCO3                -0.0005
	                                          Na+                     -50
	                                          Ozero2                  1.1
	Tot               2.721e-03   1.848e+01   CH2O                      0

-----------------------------------Gas phase-----------------------------------

Total pressure:  0.89      atmospheres 
    Gas volume:   5.00e-01 liters
  Molar volume:   2.75e+01 liters/mole

                                                        Moles in gas
                                            ----------------------------------
Component                log P           P     Initial       Final       Delta

redoxCH4(g)             -11.34   4.596e-12   9.385e-14   9.392e-14   7.393e-17
redoxCO2(g)              -3.46   3.439e-04   6.833e-06   7.027e-06   1.942e-07
redoxH2(g)              -99.99   0.000e+00   0.000e+00   0.000e+00   0.000e+00
redoxNH3(g)             -11.23   5.912e-12   1.299e-13   1.208e-13  -9.031e-15
redoxO2(g)               -0.05   8.880e-01   1.929e-02   1.815e-02  -1.147e-03

-------------------------------Phase assemblage--------------------------------

                                                      Moles in assemblage
Phase               SI  log IAP  log K(T, P)   Initial       Final       Delta

redoxFe(OH)3(a)    0.00     4.89      4.89    5.671e-03   5.671e-03  -1.219e-08

------------------------------Surface composition------------------------------

Diffuse Double Layer Surface-Complexation Model

H             
	 -1.113e-02  Surface charge, eq
	 -1.258e-02  sigma, C/m²
	 -1.267e-02  psi, V
	  4.932e-01  -F*psi/RT
	  1.638e+00  exp(-F*psi/RT)
	  3.417e+04  specific area, m²/g
	  8.536e+04  m² for   2.498e+00 g


H_a           
	  1.774e-03  moles
	                                   Mole                     Log
	Species               Moles    Fraction    Molality    Molality

	H_a-              1.774e-03       1.000   1.774e-03      -2.751
	H_aH              1.273e-07       0.000   1.273e-07      -6.895
	H_aCa+            6.129e-08       0.000   6.129e-08      -7.213

H_ab          
	  2.948e-04  moles
	                                   Mole                     Log
[...]
  redoxFe(OH)3(a)   0.00      4.89    4.89  Ferric(OH)3
  redoxGoethite     5.91      4.91   -1.00  FerricOOH
  redoxHematite    13.84      9.83   -4.01  Ferric2O3
  redoxNH3(g)     -11.35     -9.58    1.77  AmmH3
  redoxSiderite    -1.88    -12.77  -10.89  FerrousCO3

**For a gas, SI = log10(fugacity). Fugacity = pressure * phi / 1 atm.
  For ideal gases, phi = 1.

Reaction step 30.

Using solution 1.	
Using surface 1.	
Using pure phase assemblage 1.	
Using gas phase 1.	fixed volume gas phase
Using kinetics 1.	Decomposition

Kinetics 1.	Decomposition

	Time step: 24 seconds  (Incremented time: 720 seconds)

	Rate name       Delta Moles Total Moles   Reactant        Coefficient

	BA               -1.042e-03   5.870e-01   CH2O                      0
	POM1              9.929e-04   4.104e+00   CH2O                      0
	POM2             -8.381e-04   1.917e+00   CH2O                      0
	MOM               6.591e-04   1.013e+01   CH2O                      0
	DOM1              2.067e-03   2.253e-01   CH2O                      0
	DOM2              9.510e-04   3.919e-01   CH2O                      0
	QOM1              2.312e-04   5.707e-02   CH2O                      0
	QOM2              8.187e-04   1.175e+00   CH2O                      0
	EP1               2.596e-07   2.896e-04   CH2O                      0
	EP2               5.300e-08   1.381e-04   CH2O                      0
	EM                1.564e-07   2.139e-04   CH2O                      0
	respiration      -0.000e+00   1.252e-01   CH2O                      0
	                                          Cl-                     -50
	                                          HCO3                -0.0005
	                                          Na+                     -50
	                                          Ozero2                  1.1
	Tot               3.840e-03   1.856e+01   CH2O                      0

-----------------------------------Gas phase-----------------------------------

Total pressure:  0.00      atmospheres 
    Gas volume:   5.00e-01 liters
  Molar volume:   5.19e+04 liters/mole

                                                        Moles in gas
                                            ----------------------------------
Component                log P           P     Initial       Final       Delta

redoxCH4(g)             -11.33   4.647e-12   9.497e-14   9.497e-14   0.000e+00
redoxCO2(g)              -3.33   4.718e-04   9.641e-06   9.641e-06  -4.405e-20
redoxH2(g)              -99.99   0.000e+00   0.000e+00   0.000e+00   0.000e+00
redoxNH3(g)             -11.35   4.477e-12   9.149e-14   9.149e-14   0.000e+00
redoxO2(g)              -99.99   0.000e+00   0.000e+00   0.000e+00   0.000e+00

-------------------------------Phase assemblage--------------------------------

                                                      Moles in assemblage
Phase               SI  log IAP  log K(T, P)   Initial       Final       Delta

redoxFe(OH)3(a)    0.00     4.89      4.89    5.671e-03   5.671e-03   0.000e+00

------------------------------Surface composition------------------------------

Diffuse Double Layer Surface-Complexation Model

H             
	 -1.143e-02  Surface charge, eq
	 -1.292e-02  sigma, C/m²
	 -5.487e-03  psi, V
	  2.136e-01  -F*psi/RT
	  1.238e+00  exp(-F*psi/RT)
	  3.417e+04  specific area, m²/g
	  8.536e+04  m² for   2.498e+00 g


H_a           
	  1.774e-03  moles
	                                   Mole                     Log
	Species               Moles    Fraction    Molality    Molality

	H_a-              1.774e-03       1.000   1.774e-03      -2.751
	H_aH              9.592e-08       0.000   9.592e-08      -7.018
	H_aCa+            2.800e-08       0.000   2.800e-08      -7.553

H_ab          
	  2.948e-04  moles
	                                   Mole                     Log
	Species               Moles    Fraction    Molality    Molality

	H_ab-2            2.946e-04       0.999   2.946e-04      -3.531
	H_abH-            2.052e-07       0.001   2.052e-07      -6.688
	H_abCa            1.471e-09       0.000   1.471e-09      -8.833
	H_abH2            1.110e-11       0.000   1.110e-11     -10.955

H_ad          
	  2.948e-04  moles
	                                   Mole                     Log
	Species               Moles    Fraction    Molality    Molality

	H_ad-2            2.634e-04       0.894   2.634e-04      -3.579
	H_adH-            3.116e-05       0.106   3.116e-05      -4.506
	H_adCa            2.233e-07       0.001   2.233e-07      -6.651
	H_adH2            1.685e-09       0.000   1.685e-09      -8.773

H_af          
	  2.948e-04  moles
	                                   Mole                     Log
	Species               Moles    Fraction    Molality    Molality

	H_afH-            2.942e-04       0.998   2.942e-04      -3.531
	H_af-2            4.033e-07       0.001   4.033e-07      -6.394
	H_afCa            1.879e-07       0.001   1.879e-07      -6.726
	H_afH2            1.591e-08       0.000   1.591e-08      -7.798

H_ah          
	  2.948e-04  moles
	                                   Mole                     Log
	Species               Moles    Fraction    Molality    Molality

	H_ahH-            2.948e-04       1.000   2.948e-04      -3.530
	H_ahH2            1.594e-08       0.000   1.594e-08      -7.797
	H_ahCa            3.348e-10       0.000   3.348e-10      -9.475
	H_ah-2            8.443e-11       0.000   8.443e-11     -10.073

H_b           
	  1.774e-03  moles
	                                   Mole                     Log
	Species               Moles    Fraction    Molality    Molality

	H_b-              1.772e-03       0.999   1.772e-03      -2.751
	H_bH              1.235e-06       0.001   1.235e-06      -5.908
	H_bCa+            3.604e-07       0.000   3.604e-07      -6.443

H_bc          
	  2.948e-04  moles
	                                   Mole                     Log
	Species               Moles    Fraction    Molality    Molality

	H_bc-2            2.919e-04       0.990   2.919e-04      -3.535
	H_bcH-            2.680e-06       0.009   2.680e-06      -5.572
	H_bcCa            2.474e-07       0.001   2.474e-07      -6.607
	H_bcH2            1.867e-09       0.000   1.867e-09      -8.729

H_be          
	  2.948e-04  moles
	                                   Mole                     Log
	Species               Moles    Fraction    Molality    Molality

	H_beH-            2.691e-04       0.913   2.691e-04      -3.570
	H_be-2            2.552e-05       0.087   2.552e-05      -4.593
	H_beH2            1.875e-07       0.001   1.875e-07      -6.727
	H_beCa            3.937e-09       0.000   3.937e-09      -8.405

H_bg          
	  2.948e-04  moles
	                                   Mole                     Log
	Species               Moles    Fraction    Molality    Molality

	H_bgH-            2.946e-04       0.999   2.946e-04      -3.531
	H_bgH2            2.052e-07       0.001   2.052e-07      -6.688
	H_bg-2            5.837e-09       0.000   5.837e-09      -8.234
	H_bgCa            4.310e-09       0.000   4.310e-09      -8.366

H_c           
	  1.774e-03  moles
	                                   Mole                     Log
	Species               Moles    Fraction    Molality    Molality

	H_c-              1.753e-03       0.988   1.753e-03      -2.756
	H_cH              1.610e-05       0.009   1.610e-05      -4.793
	H_cCa+            4.700e-06       0.003   4.700e-06      -5.328

H_cd          
	  2.948e-04  moles
	                                   Mole                     Log
	Species               Moles    Fraction    Molality    Molality

	H_cd-2            2.333e-04       0.792   2.333e-04      -3.632
	H_cdCa            3.359e-05       0.114   3.359e-05      -4.474
	H_cdH-            2.761e-05       0.094   2.761e-05      -4.559
	H_cdH2            2.535e-07       0.001   2.535e-07      -6.596

H_cf          
	  2.948e-04  moles
	                                   Mole                     Log
	Species               Moles    Fraction    Molality    Molality

	H_cfH-            2.917e-04       0.989   2.917e-04      -3.535
	H_cfH2            2.678e-06       0.009   2.678e-06      -5.572
	H_cf-2            3.998e-07       0.001   3.998e-07      -6.398
	H_cfCa            5.625e-08       0.000   5.625e-08      -7.250

H_ch          
	  2.948e-04  moles
	                                   Mole                     Log
	Species               Moles    Fraction    Molality    Molality

	H_chH-            2.921e-04       0.991   2.921e-04      -3.535
	H_chH2            2.682e-06       0.009   2.682e-06      -5.572
	H_chCa            5.633e-08       0.000   5.633e-08      -7.249
	H_ch-2            8.365e-11       0.000   8.365e-11     -10.078

H_d           
	  1.774e-03  moles
	                                   Mole                     Log
	Species               Moles    Fraction    Molality    Molality

	H_d-              1.539e-03       0.867   1.539e-03      -2.813
	H_dH              1.820e-04       0.103   1.820e-04      -3.740
	H_dCa+            5.314e-05       0.030   5.314e-05      -4.275

H_de          
	  2.948e-04  moles
	                                   Mole                     Log
	Species               Moles    Fraction    Molality    Molality

	H_deH-            2.425e-04       0.823   2.425e-04      -3.615
	H_deH2            2.869e-05       0.097   2.869e-05      -4.542
	H_de-2            2.300e-05       0.078   2.300e-05      -4.638
	H_deCa            6.026e-07       0.002   6.026e-07      -6.220

H_dg          
	  2.948e-04  moles
	                                   Mole                     Log
	Species               Moles    Fraction    Molality    Molality

	H_dgH-            2.630e-04       0.892   2.630e-04      -3.580
	H_dgH2            3.112e-05       0.106   3.112e-05      -4.507
	H_dgCa            6.535e-07       0.002   6.535e-07      -6.185
	H_dg-2            5.212e-09       0.000   5.212e-09      -8.283

H_e           
	  8.869e-04  moles
	                                   Mole                     Log
	Species               Moles    Fraction    Molality    Molality

	H_eH              8.100e-04       0.913   8.100e-04      -3.091
	H_e-              7.683e-05       0.087   7.683e-05      -4.114
	H_eCa+            3.835e-08       0.000   3.835e-08      -7.416

H_f           
	  8.869e-04  moles
	                                   Mole                     Log
	Species               Moles    Fraction    Molality    Molality

	H_fH              8.856e-04       0.999   8.856e-04      -3.053
	H_f-              1.214e-06       0.001   1.214e-06      -5.916
	H_fCa+            4.193e-08       0.000   4.193e-08      -7.377

H_g           
	  8.869e-04  moles
	                                   Mole                     Log
	Species               Moles    Fraction    Molality    Molality

	H_gH              8.868e-04       1.000   8.868e-04      -3.052
	H_gCa+            4.199e-08       0.000   4.199e-08      -7.377
	H_g-              1.757e-08       0.000   1.757e-08      -7.755

H_h           
	  8.869e-04  moles
	                                   Mole                     Log
	Species               Moles    Fraction    Molality    Molality

	H_hH              8.869e-04       1.000   8.869e-04      -3.052
	H_hCa+            4.199e-08       0.000   4.199e-08      -7.377
	H_h-              2.540e-10       0.000   2.540e-10      -9.595

Hfo           
	  2.799e-04  Surface charge, eq
	  4.460e-01  sigma, C/m²
	  1.037e-01  psi, V
	 -4.035e+00  -F*psi/RT
	  1.768e-02  exp(-F*psi/RT)
	  1.068e+04  specific area, m²/mol redoxFe(OH)3(a)
	  6.056e+01  m² for   5.671e-03 moles of redoxFe(OH)3(a)


Hfo_s         
	  2.835e-05  moles	[0.005 mol/(mol redoxFe(OH)3(a))]
	                                   Mole                     Log
	Species               Moles    Fraction    Molality    Molality

	Hfo_sOFerrous+    1.270e-05       0.448   1.270e-05      -4.896
	Hfo_sOH           1.073e-05       0.378   1.073e-05      -4.969
	Hfo_sOH2+         4.152e-06       0.146   4.152e-06      -5.382
	Hfo_sO-           6.352e-07       0.022   6.352e-07      -6.197
	Hfo_sOHCa+2       1.313e-07       0.005   1.313e-07      -6.882

Hfo_w         
	  1.134e-03  moles	[0.2 mol/(mol redoxFe(OH)3(a))]
	                                   Mole                     Log
	Species               Moles    Fraction    Molality    Molality

	Hfo_wOH           7.775e-04       0.686   7.775e-04      -3.109
	Hfo_wOH2+         3.009e-04       0.265   3.009e-04      -3.522
	Hfo_wO-           4.603e-05       0.041   4.603e-05      -4.337
	Hfo_wOFerrous+    8.591e-06       0.008   8.591e-06      -5.066
	Hfo_wOFerrousOH   1.123e-06       0.001   1.123e-06      -5.949
	Hfo_wOCa+         7.255e-09       0.000   7.255e-09      -8.139

-----------------------------Solution composition------------------------------

	Elements           Molality       Moles

	Acetate           4.380e-03   4.380e-03
	Amm               1.000e-06   1.000e-06
	C                 2.460e-05   2.460e-05
	Ca                1.692e-03   1.692e-03
	Cl                1.050e+00   1.050e+00
	Ferric            2.604e-07   2.604e-07
	Ferrous           4.031e-03   4.031e-03
	Glucose           5.400e-04   5.400e-04
	Methane           5.027e-15   5.027e-15
	Na                1.044e+00   1.044e+00

----------------------------Description of solution----------------------------

                                       pH  =   5.950      Charge balance
                                       pe  =  14.209      Adjusted to redox equilibrium
      Specific Conductance (µS/cm,  25°C)  = 82711
                        Activity of water  =   0.964
                 Ionic strength (mol/kgw)  =   1.059e+00
                       Mass of water (kg)  =   1.000e+00
                 Total alkalinity (eq/kg)  =   4.221e-03
                       Total CO2 (mol/kg)  =   2.460e-05
                         Temperature (°C)  =  25.00
                           Pressure (atm)  =  0.00
                  Electrical balance (eq)  =   1.440e-03
 Percent error, 100*(Cat-|An|)/(Cat+|An|)  =   0.07
                               Iterations  =  53
                                  Total H  = 1.110126e+02
                                  Total O  = 5.550630e+01

----------------------------Distribution of species----------------------------

                                               Log       Log       Log    mole V
   Species          Molality    Activity  Molality  Activity     Gamma   cm³/mol

   H+              1.514e-06   1.123e-06    -5.820    -5.950    -0.130      0.00
   OH-             1.496e-08   8.598e-09    -7.825    -8.066    -0.240     (0)  
   H2O             5.551e+01   9.642e-01     1.744    -0.016     0.000     18.07
Acetate       4.380e-03
   Acetate-        4.211e-03   3.371e-03    -2.376    -2.472    -0.097     (0)  
   HAcetate        1.695e-04   2.162e-04    -3.771    -3.665     0.106     (0)  
Amm           1.000e-06
   AmmH4+          9.998e-07   5.193e-07    -6.000    -6.285    -0.284     (0)  
   AmmH3           2.066e-10   2.636e-10    -9.685    -9.579     0.106     (0)  
C(4)          2.460e-05
   CO2             1.259e-05   1.606e-05    -4.900    -4.794     0.106     (0)  
   HCO3-           9.411e-06   6.136e-06    -5.026    -5.212    -0.186     (0)  
   NaHCO3          2.028e-06   2.588e-06    -5.693    -5.587     0.106     (0)  
   FerrousHCO3+    5.136e-07   4.111e-07    -6.289    -6.386    -0.097     (0)  
   CaHCO3+         5.037e-08   3.284e-08    -7.298    -7.484    -0.186     (0)  
   NaCO3-          4.471e-09   3.579e-09    -8.350    -8.446    -0.097     (0)  
   FerrousCO3      3.228e-09   4.120e-09    -8.491    -8.385     0.106     (0)  
   CO3-2           1.419e-09   2.563e-10    -8.848    -9.591    -0.743     (0)  
   CaCO3           1.415e-10   1.806e-10    -9.849    -9.743     0.106     (0)  
Ca            1.692e-03
   Ca+2            1.692e-03   4.195e-04    -2.772    -3.377    -0.606     (0)  
   CaHCO3+         5.037e-08   3.284e-08    -7.298    -7.484    -0.186     (0)  
   CaCO3           1.415e-10   1.806e-10    -9.849    -9.743     0.106     (0)  
   CaOH+           7.470e-11   5.980e-11   -10.127   -10.223    -0.097     (0)  
Cl            1.050e+00
   Cl-             1.049e+00   6.256e-01     0.021    -0.204    -0.225     (0)  
   FerrousCl+      7.229e-04   5.787e-04    -3.141    -3.238    -0.097     (0)  
   FerricCl2+      8.099e-12   6.483e-12   -11.092   -11.188    -0.097     (0)  
   FerricCl+2      5.649e-12   2.320e-12   -11.248   -11.635    -0.387     (0)  
   FerricCl3       3.178e-13   4.056e-13   -12.498   -12.392     0.106     (0)  
Ferric        2.604e-07
   Ferric(OH)2+    2.419e-07   1.937e-07    -6.616    -6.713    -0.097     (0)  
   Ferric(OH)3     1.679e-08   2.143e-08    -7.775    -7.669     0.106     (0)  
   FerricOH+2      1.658e-09   6.810e-10    -8.780    -9.167    -0.387     (0)  
   Ferric(OH)4-    2.097e-11   1.679e-11   -10.678   -10.775    -0.097     (0)  
   FerricCl2+      8.099e-12   6.483e-12   -11.092   -11.188    -0.097     (0)  
   FerricCl+2      5.649e-12   2.320e-12   -11.248   -11.635    -0.387     (0)  
   Ferric+3        1.811e-12   1.228e-13   -11.742   -12.911    -1.169     (0)  
   FerricCl3       3.178e-13   4.056e-13   -12.498   -12.392     0.106     (0)  
   Ferric2(OH)2+4   4.388e-16   1.248e-17   -15.358   -16.904    -1.546     (0)  
   Ferric3(OH)4+5   1.315e-19   5.050e-22   -18.881   -21.297    -2.416     (0)  
Ferrous       4.031e-03
   Ferrous+2       3.307e-03   6.701e-04    -2.481    -3.174    -0.693     (0)  
   FerrousCl+      7.229e-04   5.787e-04    -3.141    -3.238    -0.097     (0)  
   FerrousHCO3+    5.136e-07   4.111e-07    -6.289    -6.386    -0.097     (0)  
   FerrousOH+      2.274e-07   1.820e-07    -6.643    -6.740    -0.097     (0)  
   FerrousCO3      3.228e-09   4.120e-09    -8.491    -8.385     0.106     (0)  
Glucose       5.400e-04
   Glucose         5.400e-04   6.891e-04    -3.268    -3.162     0.106     (0)  
H(0)          0.000e+00
   H2              0.000e+00   0.000e+00   -43.573   -43.467     0.106     (0)  
Methane       5.027e-15
   MethaneH4       5.027e-15   6.415e-15   -14.299   -14.193     0.106     (0)  
Na            1.044e+00
   Na+             1.044e+00   7.500e-01     0.019    -0.125    -0.144     (0)  
   NaHCO3          2.028e-06   2.588e-06    -5.693    -5.587     0.106     (0)  
   NaCO3-          4.471e-09   3.579e-09    -8.350    -8.446    -0.097     (0)  
   NaOH            3.335e-09   4.256e-09    -8.477    -8.371     0.106     (0)  
O(0)          5.224e-06
   O2              2.612e-06   3.333e-06    -5.583    -5.477     0.106     (0)  

------------------------------Saturation indices-------------------------------

  Phase               SI** log IAP   log K(298 K,   0 atm)

  FeRA           1098.08   -330.30-1428.38  C5H4O2Amm
  FixpH            -5.95     -5.95    0.00  H+
  H2(g)           -40.32    -43.47   -3.15  H2
  H2O(g)           -1.53     -0.02    1.51  H2O
  Halite           -1.91     -0.33    1.58  NaCl
  MeGA           1899.61   1690.36 -209.25  C5H4O2Amm
  redoxAragonite   -4.63    -12.97   -8.34  CaCO3
  redoxCalcite     -4.49    -12.97   -8.48  CaCO3
  redoxCH4(g)     -11.33    -14.19   -2.86  MethaneH4
  redoxCO2(g)      -3.33     -4.79   -1.47  CO2
  redoxFe(OH)3(a)   0.00      4.89    4.89  Ferric(OH)3
  redoxGoethite     5.91      4.91   -1.00  FerricOOH
  redoxHematite    13.84      9.83   -4.01  Ferric2O3
  redoxNH3(g)     -11.35     -9.58    1.77  AmmH3
  redoxSiderite    -1.88    -12.77  -10.89  FerrousCO3

**For a gas, SI = log10(fugacity). Fugacity = pressure * phi / 1 atm.
  For ideal gases, phi = 1.

------------------
End of simulation.
------------------

------------------------------------
Reading input data for simulation 4.
------------------------------------

---------------------------------
End of Run after 1.25604 Seconds.
---------------------------------

