   Input file: MENDp_180bdd.phrq
  Output file: MENDp_180bdd.phrq.out
Database file: ../../database/redox.dat

------------------
Reading data base.
------------------

	SOLUTION_MASTER_SPECIES
	SOLUTION_SPECIES
	PHASES
	EXCHANGE_MASTER_SPECIES
	EXCHANGE_SPECIES
	SURFACE_MASTER_SPECIES
	SURFACE_SPECIES
	RATES
	END
------------------------------------
Reading input data for simulation 1.
------------------------------------

	DATABASE ../../database/redox.dat
	TITLE Carbon decomposition in MEND
	CALCULATE_VALUES
	 fpH
	 start
	 10 pH = -la("H+")
	 20 fpH = 10^(-0.2235*pH*pH + 2.7727*pH - 8.6)
	 30 SAVE fpH
	 end
	fsalt
	 start
	 10 logs = la("Cl-")+la("Na+")
	 20 fsalt = 1 / (1.0 + exp(-2.5 * (1.5 - logs)))  #log(umol g-1)
	 40 SAVE fsalt
	 end
	frdx
	 start
	 10 do = tot('Ozero')
	 20 frdx = do/(do+0.00002)
	 40 SAVE frdx
	 end
	SOLUTION 1
	  units       mmol/kgw
	  temperature 	 25
	  pH 	  6.07
	  Acetate 	       4.38
	  Glucose 	       0.54
	  Ferrous 	       4.00
	  C(4)        1.0 redoxCO2(g) -3.4  # in equilibrium with CO2 in atmosphere, 400 pm
	  Ca          1.0
	  Na          1.0   
	  Cl          3.0  charge
	  Ozero       0.25 redoxO2(g) 0.0   #mmol/L atm level
	  Ferric      1e-20 redoxFe(OH)3(a) 0.0
	  Methane     1.0e-10
	  Amm         1.0e-3
	  SAVE SOLUTION 1
	END
-----
TITLE
-----

 Carbon decomposition in MEND

-------------------------------------------
Beginning of initial solution calculations.
-------------------------------------------

Initial solution 1.	

-----------------------------Solution composition------------------------------

	Elements           Molality       Moles

	Acetate           4.380e-03   4.380e-03
	Amm               1.000e-06   1.000e-06
	C(4)              2.357e-05   2.357e-05  Equilibrium with redoxCO2(g)
	Ca                1.000e-03   1.000e-03
	Cl                6.790e-03   6.790e-03  Charge balance
	Ferric            1.826e-07   1.826e-07  Equilibrium with redoxFe(OH)3(a)
	Ferrous           4.000e-03   4.000e-03
	Glucose           5.400e-04   5.400e-04
	Methane           1.000e-13   1.000e-13
	Na                1.000e-03   1.000e-03
	Ozero             2.553e-03   2.553e-03  Equilibrium with redoxO2(g)

----------------------------Description of solution----------------------------

                                       pH  =   6.070    
                                       pe  =   4.000    
      Specific Conductance (µS/cm,  25°C)  = 980
                        Activity of water  =   1.000
                 Ionic strength (mol/kgw)  =   1.595e-02
                       Mass of water (kg)  =   1.000e+00
                 Total alkalinity (eq/kg)  =   4.211e-03
                       Total CO2 (mol/kg)  =   2.357e-05
                         Temperature (°C)  =  25.00
                  Electrical balance (eq)  =   8.318e-18
 Percent error, 100*(Cat-|An|)/(Cat+|An|)  =   0.00
                               Iterations  =  12
                                  Total H  = 1.110126e+02
                                  Total O  = 5.550628e+01

----------------------------Distribution of species----------------------------

                                               Log       Log       Log    mole V
   Species          Molality    Activity  Molality  Activity     Gamma   cm³/mol

   H+              9.482e-07   8.511e-07    -6.023    -6.070    -0.047      0.00
   OH-             1.338e-08   1.176e-08    -7.873    -7.930    -0.056     (0)  
   H2O             5.551e+01   9.997e-01     1.744    -0.000     0.000     18.07
Acetate       4.380e-03
   Acetate-        4.201e-03   3.703e-03    -2.377    -2.431    -0.055     (0)  
   HAcetate        1.795e-04   1.801e-04    -3.746    -3.744     0.002     (0)  
Amm           1.000e-06
   AmmH4+          9.994e-07   8.737e-07    -6.000    -6.059    -0.058     (0)  
   AmmH3           5.829e-10   5.850e-10    -9.234    -9.233     0.002     (0)  
C(4)          2.357e-05
   CO2             1.350e-05   1.355e-05    -4.870    -4.868     0.002     (0)  
   HCO3-           7.992e-06   7.080e-06    -5.097    -5.150    -0.053     (0)  
   FerrousHCO3+    1.985e-06   1.750e-06    -5.702    -5.757    -0.055     (0)  
   CaHCO3+         6.276e-08   5.560e-08    -7.202    -7.255    -0.053     (0)  
   FerrousCO3      2.304e-08   2.313e-08    -7.637    -7.636     0.002     (0)  
   NaHCO3          3.503e-09   3.516e-09    -8.456    -8.454     0.002     (0)  
   CO3-2           6.334e-10   3.901e-10    -9.198    -9.409    -0.210     (0)  
   CaCO3           4.019e-10   4.034e-10    -9.396    -9.394     0.002     (0)  
   NaCO3-          7.276e-12   6.414e-12   -11.138   -11.193    -0.055     (0)  
Ca            1.000e-03
   Ca+2            9.999e-04   6.155e-04    -3.000    -3.211    -0.211     (0)  
   CaHCO3+         6.276e-08   5.560e-08    -7.202    -7.255    -0.053     (0)  
   CaCO3           4.019e-10   4.034e-10    -9.396    -9.394     0.002     (0)  
   CaOH+           1.361e-10   1.200e-10    -9.866    -9.921    -0.055     (0)  
Cl            6.790e-03
   Cl-             6.767e-03   5.949e-03    -2.170    -2.226    -0.056     (0)  
   FerrousCl+      2.302e-05   2.029e-05    -4.638    -4.693    -0.055     (0)  
   FerricCl+2      1.428e-14   8.627e-15   -13.845   -14.064    -0.219     (0)  
   FerricCl2+      2.600e-16   2.292e-16   -15.585   -15.640    -0.055     (0)  
   FerricCl3       1.359e-19   1.364e-19   -18.867   -18.865     0.002     (0)  
Ferric        1.826e-07
   Ferric(OH)2+    1.607e-07   1.416e-07    -6.794    -6.849    -0.055     (0)  
   Ferric(OH)3     2.135e-08   2.143e-08    -7.671    -7.669     0.002     (0)  
   FerricOH+2      6.029e-10   3.642e-10    -9.220    -9.439    -0.219     (0)  
   Ferric(OH)4-    2.604e-11   2.295e-11   -10.584   -10.639    -0.055     (0)  
   Ferric+3        1.269e-13   4.802e-14   -12.896   -13.319    -0.422     (0)  
   FerricCl+2      1.428e-14   8.627e-15   -13.845   -14.064    -0.219     (0)  
   FerricCl2+      2.600e-16   2.292e-16   -15.585   -15.640    -0.055     (0)  
   Ferric2(OH)2+4   2.683e-17   3.569e-18   -16.571   -17.447    -0.876     (0)  
   FerricCl3       1.359e-19   1.364e-19   -18.867   -18.865     0.002     (0)  
   Ferric3(OH)4+5   2.468e-21   1.056e-22   -20.608   -21.976    -1.369     (0)  
Ferrous       4.000e-03
   Ferrous+2       3.974e-03   2.471e-03    -2.401    -2.607    -0.206     (0)  
   FerrousCl+      2.302e-05   2.029e-05    -4.638    -4.693    -0.055     (0)  
   FerrousHCO3+    1.985e-06   1.750e-06    -5.702    -5.757    -0.055     (0)  
   FerrousOH+      1.041e-06   9.179e-07    -5.982    -6.037    -0.055     (0)  
   FerrousCO3      2.304e-08   2.313e-08    -7.637    -7.636     0.002     (0)  
Glucose       5.400e-04
   Glucose         5.400e-04   5.420e-04    -3.268    -3.266     0.002     (0)  
H(0)          1.022e-23
   H2              5.110e-24   5.129e-24   -23.292   -23.290     0.002     (0)  
Methane       1.000e-13
   MethaneH4       1.000e-13   1.004e-13   -13.000   -12.998     0.002     (0)  
Na            1.000e-03
   Na+             1.000e-03   8.830e-04    -3.000    -3.054    -0.054     (0)  
   NaHCO3          3.503e-09   3.516e-09    -8.456    -8.454     0.002     (0)  
   NaCO3-          7.276e-12   6.414e-12   -11.138   -11.193    -0.055     (0)  
   NaOH            6.827e-12   6.852e-12   -11.166   -11.164     0.002     (0)  
O(0)          0.000e+00
   O2              0.000e+00   0.000e+00   -45.802   -45.800     0.002     (0)  
Ozero         2.553e-03
   Ozero2          1.277e-03   1.281e-03    -2.894    -2.892     0.002     (0)  

------------------------------Saturation indices-------------------------------

  Phase               SI** log IAP   log K(298 K,   1 atm)

  FeRA            971.76   -456.62-1428.38  C5H4O2Amm
  FixpH            -6.07     -6.07    0.00  H+
  H2(g)           -20.14    -23.29   -3.15  H2
  H2O(g)           -1.51     -0.00    1.51  H2O
  Halite           -6.86     -5.28    1.58  NaCl
  MeGA           1778.29   1569.04 -209.25  C5H4O2Amm
  ORA             486.63      8.20 -478.43  C5H4O2Amm
  ORM             769.52   -109.71 -879.23  C5H4O2Amm
  redoxAragonite   -4.28    -12.62   -8.34  CaCO3
  redoxCalcite     -4.14    -12.62   -8.48  CaCO3
  redoxCH4(g)     -10.14    -13.00   -2.86  MethaneH4
  redoxCO2(g)      -3.40     -4.87   -1.47  CO2
  redoxFe(OH)3(a)  -0.00      4.89    4.89  Ferric(OH)3
  redoxGoethite     5.89      4.89   -1.00  FerricOOH
  redoxHematite    13.79      9.78   -4.01  Ferric2O3
  redoxNH3(g)     -11.00     -9.23    1.77  AmmH3
  redoxO2(g)        0.00     -2.89   -2.89  Ozero2
  redoxSiderite    -1.13    -12.02  -10.89  FerrousCO3

**For a gas, SI = log10(fugacity). Fugacity = pressure * phi / 1 atm.
  For ideal gases, phi = 1.

------------------
End of simulation.
------------------

------------------------------------
Reading input data for simulation 2.
------------------------------------

	GAS_PHASE 1 fixed volume gas phase
	  fixed_volume
	  volume 	   0.5
	  temperature 	 8.0
	  redoxCH4(g) 0.0
	  redoxCO2(g) 0.0
	  redoxH2(g)  0.0
	  redoxO2(g)  1.0
	  redoxNH3(g) 0.0
	  SAVE GAS_PHASE 1
	END
------------------
End of simulation.
------------------

------------------------------------
Reading input data for simulation 3.
------------------------------------

	USE SOLUTION 1
	USE GAS_PHASE 1
	EQUILIBRIUM_PHASES 1
	  redoxFe(OH)3(a) 0.0 5.67059990E-03
	SURFACE 1
	Hfo_w redoxFe(OH)3(a) 0.2 1.068E4
	Hfo_s redoxFe(OH)3(a) 0.005 1.068E4
	  H_a   1.774E-03  3.417E+04      2.498
	  H_b   1.774E-03
	 H_c   1.774E-03
	 H_d  1.774E-03
	  H_e   8.869E-04
	 H_f   8.869E-04
	 H_g  8.869E-04
	 H_h  8.869E-04
	  H_ab  2.948E-04
	 H_ad  2.948E-04
	 H_af  2.948E-04
	 H_ah  2.948E-04
	  H_bc  2.948E-04
	 H_be  2.948E-04
	 H_bg  2.948E-04
	 H_cd  2.948E-04
	  H_cf  2.948E-04
	 H_ch  2.948E-04
	 H_de  2.948E-04
	 H_dg  2.948E-04
	  equilibrate 1
	KINETICS  Decomposition
	cvode
	BA
	   m0   0.5745
	   formula CH2O 0.0   
	   parms 5e-4  0.26  3e-4 2.6  0.75  0.01  0.25   #Vd1, kD1, Vd2, kD2, Ec1, pEP, Ec2
	POM1
	   m0   4.0866
	   formula CH2O 0.0    
	   parms 1.5  50  2e-5  0.5  #vp1, kp1, Ip1, gD-fraction of dead BA to D   KmO2
	POM2
	   m0   1.923
	   formula CH2O 0.0
	   parms  1.5   5  2e-5   #vp2, kp2, Ip2,  KmO2
	MOM
	   m0   10.101
	   formula CH2O 0.0
	   parms 0.1  250  0.5   #vm, km, fD- fraction of decomposed p1/p2 to D
	DOM1
	   m0   0.209
	   formula CH2O 0.0  
	   parms  6e-5  0.5  0.5  #Input, gD  fD
	DOM2
	   m0   0.368
	   formula CH2O 0.0  
	   parms  6e-5  0.5  #Input, fD
	QOM1
	   m0   0.055165
	   formula CH2O 0.0   
	   parms 0.006 0.1  0.001   #adsorption constant, Qmax, desorption constant
	QOM2
	   m0   1.1516
	   formula CH2O 0.0  
	   parms 0.006  1.7 0.001   #adsorption constant, Qmax, desorption constant
	EP1
	   m0   2.7854e-4
	   formula CH2O 0.0
	   parms  0.01 5e-4 0.75 1e-3  #pEP, Vd1, Ec1, rEP
	EP2
	   m0   1.3368e-4
	   formula CH2O 0.0
	   parms  0.01 5e-4 0.75 1e-3  #pEP, Vd1, Ec1, rEP
	EM
	   m0   2.0587e-4
	   formula CH2O 0.0
	   parms  0.005 5e-4 0.75 1e-3  #pEP, Vd1, Ec1, rEP
	respiration
	   m0   0.10432
	   formula CH2O 0.0    HCO3 -0.0005  Ozero2  1.1  Cl-  -50   Na+  -50
	   parms  0.75  0.25  #Ec1, Ec2
	Tot
	   m0   18.47
	   formula CH2O 0.0
	   parms  0.75  0.25 2e-5  2e-5  6e-5  6e-5   #Ip1, Ip2, Id1, Id2, Ec1, Ec2
	   steps 720 in 30 steps #hour
	  INCREMENTAL_REACTIONS true
	RATES
	BA
	   start
	     2 f1 = CALC_VALUE("fpH")
	     5 f2 = CALC_VALUE("fsalt")
	     8 f3 = CALC_VALUE("frdx")*1.007
	    10 mDOM1= kin("DOM1")
	    20 mDOM2= kin("DOM2")
	    30 bio = kin("BA")
	    40 flux1=f1*f2*f3*parm(1)*bio*mDOM1/(parm(2)+mDOM1)   #Vd1, kD1
	    50 put(flux1, 1)                                       
	    60 flux2=f1*f2*f3*parm(3)*bio*mDOM2/(parm(4)+mDOM2)   #Vd2, kD2
	    70 put(flux2, 2)                                           
	    80 flux3 = (1-parm(6)*3)*parm(1)*parm(5)*bio*0.2   ##mortality
	    90 put(flux3, 3)                              #biomass decay              
	    100 rate = parm(5)* get(1)+ parm(7)*get(2)-get(3)-(get(11)+get(13)+get(15))
	    110 save -rate * time 
	   end
	POM1
	   start
	     2 f1 = CALC_VALUE("fpH")
	     5 f2 = CALC_VALUE("fsalt")
	     8 f3 = CALC_VALUE("frdx")*1.007
	    10 mPOM1 = kin("POM1")
	    20 ep1 = kin("EP1")
	    30 flux = f1*f2*f3*parm(1) * ep1 * mPOM1 /(parm(2)+ mPOM1) # Vp1, kP1
	    40 put(flux, 4)  #flux FP1
	    50 rate = parm(3)+ (1-parm(4))*get(3)-get(4)     #input, gD
	    100 save -rate * time
	   end
	POM2
	   start
	     2 f1 = CALC_VALUE("fpH")
	     5 f2 = CALC_VALUE("fsalt")
	    10 mPOM2= kin("POM2")
	    20 ep2 = kin("EP2")
	    30 flux = f1*f2*parm(1) * ep2 * mPOM2 /(parm(2)+ mPOM2) # parm(1)=Vp2, parm(2)=Kp2
	    40 put(flux, 5)  #flux FP2
	    50 rate = parm(3)-get(5)   #parm(3)=POM2 input
	    100 save -rate * time
	   end
	MOM
	   start
	     2 f1 = CALC_VALUE("fpH")
	     5 f2 = CALC_VALUE("fsalt")
	     8 f3 = CALC_VALUE("frdx")*1.007
	    10 mMOM = kin("MOM")
	    20 em = kin("EM")
	    30 flux = f1*f2*f3*parm(1) * em * mMOM /(parm(2)+ mMOM) # parm(1)=VM, parm(2)=KM
	    40 put(flux,6)  #flux FM
	    50 rate = (1-parm(3))*(get(4)+get(5))-get(6)   #parm(3)=fD_fraction of decomposed P1/P2 to D
	    100 save -rate*time
	   end
	DOM1
	   start
	    10 rate = parm(1)+parm(2)* get(3)+get(6)+0.5*parm(3)*(get(4)+get(5))-get(1)-(get(7)-get(8))+get(12)+get(14)+get(16)
	    100 save -rate* time
	   end
	DOM2
	   start
	    50 rate = parm(1)+0.5*parm(2)*(get(4)+get(5))-get(2)-(get(9)-get(10)) 
	    100 save -rate* time
	   end
	QOM1
	   start
	    10 mQOM = kin("QOM1")
	    20 D = kin("DOM1")
	    30 flux1 = parm(1) * (1-mQOM/parm(2))* D #parm(1)=adsorption constant, parm(2)=Qmax
	    40 put(flux1,7)  #flux F4
	    50 flux2 = parm(3) * (mQOM/parm(2)) #parm(3)=desorption constant, parm(2)=Qmax
	    60 put(flux2,8)  #flux F5
	    70 rate = get(7)-get(8)
	    100 save -rate * time
	   end
	QOM2
	   start
	    10 mQOM = kin("QOM2")
	    20 D = kin("DOM2")
	    30 flux1 = parm(1) * (1-mQOM/parm(2))* D #parm(1)=adsorption constant, parm(2)=Qmax
	    40 put(flux1,9)  #flux F4
	    50 flux2 = parm(3) * (mQOM/parm(2)) #parm(3)=desorption constant, parm(2)=Qmax
	    60 put(flux2,10)  #flux F5
	    70 rate = get(9)-get(10)
	    100 save -rate * time
	   end
	EP1
	   start
	    10 p1 = kin("POM1")
	    20 p2 = kin ("POM2")
	    30 bio = kin("BA")
	    40 ep1 = kin("EP1")
	    50 flux1 = p1/(p1+p2)*parm(1)*parm(2)*parm(3)*bio *0.2
	    60 put (flux1,11)
	    70 flux2 = parm(4) *ep1
	    80 put (flux2,12)
	    90 rate = get(11)-get(12)
	    100 save -rate * time
	   end
	EP2
	   start
	    10 p1 = kin("POM1")
	    20 p2 = kin ("POM2")
	    30 bio = kin("BA")
	    40 ep2 = kin("EP2")
	    50 flux1 = p2/(p1+p2)*parm(1)*parm(2)*parm(3)*bio*0.2
	    60 put (flux1,13)
	    70 flux2 = parm(4) *ep2
	    80 put (flux2,14)
	    90 rate = get(13)-get(14)
	    100  save -rate * time
	   end
	EM
	   start
	    10 em = kin("EM")
	    20 bio = kin("BA")
	    30 flux1 = parm(1)*parm(2)*parm(3)*bio*0.2
	    40 put (flux1, 15)
	    50 flux2= parm(4)* em
	    60 put (flux2,16)
	    70 rate = get(15)-get(16)
	    100  save -rate * time
	   end
	respiration
	   start
	    10 rate = (1-parm(1))* get(1)+ (1-parm(2))*get(2)
	    20 save -rate * time
	   end
	Tot
	   start
	    10 rate = parm(3)+parm(4)+parm(5)+parm(6)- (1-parm(1))* get(1)- (1-parm(2))*get(2)
	    20 save -rate * time
	   end
	SELECTED_OUTPUT
	  reset false
	  file MENDp_180bdd.txt
	USER_PUNCH
	  start
	  heading Time P1 P2 M Q1 Q2 D1 D2 B EP1 EP2 EM  IC Tot pH  fpH CO2aq  O2 fsalt frdx
	  10 PUNCH SIM_TIME
	  20 PUNCH kin('POM1') kin('POM2') kin('MOM') kin('QOM1') kin('QOM2') kin('DOM1') kin('DOM2') kin('BA') kin('EP1') kin('EP2') kin('EM') 
	  30 PUNCH kin('respiration') kin("Tot")
	  40 PUNCH -la("H+")
	  50 PUNCH CALC_VALUE("fpH")
	  60 PUNCH tot('C(4)')
	  70 PUNCH tot('Ozero')
	  80 PUNCH CALC_VALUE("fsalt")  CALC_VALUE("frdx")*1.007
	  end
	END
WARNING: Suggest using master species formula in SURFACE 
	 for surface related to equilibrium_phase: H_aH.
WARNING: Suggest using master species formula in SURFACE 
	 for surface related to equilibrium_phase: H_abH2.
WARNING: Suggest using master species formula in SURFACE 
	 for surface related to equilibrium_phase: H_adH2.
WARNING: Suggest using master species formula in SURFACE 
	 for surface related to equilibrium_phase: H_afH2.
WARNING: Suggest using master species formula in SURFACE 
	 for surface related to equilibrium_phase: H_ahH2.
WARNING: Suggest using master species formula in SURFACE 
	 for surface related to equilibrium_phase: H_bH.
WARNING: Suggest using master species formula in SURFACE 
	 for surface related to equilibrium_phase: H_bcH2.
WARNING: Suggest using master species formula in SURFACE 
	 for surface related to equilibrium_phase: H_beH2.
WARNING: Suggest using master species formula in SURFACE 
	 for surface related to equilibrium_phase: H_bgH2.
WARNING: Suggest using master species formula in SURFACE 
	 for surface related to equilibrium_phase: H_cH.
WARNING: Suggest using master species formula in SURFACE 
	 for surface related to equilibrium_phase: H_cdH2.
WARNING: Suggest using master species formula in SURFACE 
	 for surface related to equilibrium_phase: H_cfH2.
WARNING: Suggest using master species formula in SURFACE 
	 for surface related to equilibrium_phase: H_chH2.
WARNING: Suggest using master species formula in SURFACE 
	 for surface related to equilibrium_phase: H_dH.
WARNING: Suggest using master species formula in SURFACE 
	 for surface related to equilibrium_phase: H_deH2.
WARNING: Suggest using master species formula in SURFACE 
	 for surface related to equilibrium_phase: H_dgH2.
WARNING: Suggest using master species formula in SURFACE 
	 for surface related to equilibrium_phase: H_eH.
WARNING: Suggest using master species formula in SURFACE 
	 for surface related to equilibrium_phase: H_fH.
WARNING: Suggest using master species formula in SURFACE 
	 for surface related to equilibrium_phase: H_gH.
WARNING: Suggest using master species formula in SURFACE 
	 for surface related to equilibrium_phase: H_hH.
WARNING: Suggest using master species formula in SURFACE 
	 for surface related to equilibrium_phase: Hfo_sOH.
WARNING: Suggest using master species formula in SURFACE 
	 for surface related to equilibrium_phase: Hfo_wOH.
WARNING: Suggest using master species formula in SURFACE 
	 for surface related to equilibrium_phase: H_aH.
WARNING: Suggest using master species formula in SURFACE 
	 for surface related to equilibrium_phase: H_abH2.
WARNING: Suggest using master species formula in SURFACE 
	 for surface related to equilibrium_phase: H_adH2.
WARNING: Suggest using master species formula in SURFACE 
	 for surface related to equilibrium_phase: H_afH2.
WARNING: Suggest using master species formula in SURFACE 
	 for surface related to equilibrium_phase: H_ahH2.
WARNING: Suggest using master species formula in SURFACE 
	 for surface related to equilibrium_phase: H_bH.
WARNING: Suggest using master species formula in SURFACE 
	 for surface related to equilibrium_phase: H_bcH2.
WARNING: Suggest using master species formula in SURFACE 
	 for surface related to equilibrium_phase: H_beH2.
WARNING: Suggest using master species formula in SURFACE 
	 for surface related to equilibrium_phase: H_bgH2.
WARNING: Suggest using master species formula in SURFACE 
	 for surface related to equilibrium_phase: H_cH.
WARNING: Suggest using master species formula in SURFACE 
	 for surface related to equilibrium_phase: H_cdH2.
WARNING: Suggest using master species formula in SURFACE 
	 for surface related to equilibrium_phase: H_cfH2.
WARNING: Suggest using master species formula in SURFACE 
	 for surface related to equilibrium_phase: H_chH2.
WARNING: Suggest using master species formula in SURFACE 
	 for surface related to equilibrium_phase: H_dH.
WARNING: Suggest using master species formula in SURFACE 
	 for surface related to equilibrium_phase: H_deH2.
WARNING: Suggest using master species formula in SURFACE 
	 for surface related to equilibrium_phase: H_dgH2.
WARNING: Suggest using master species formula in SURFACE 
	 for surface related to equilibrium_phase: H_eH.
WARNING: Suggest using master species formula in SURFACE 
	 for surface related to equilibrium_phase: H_fH.
WARNING: Suggest using master species formula in SURFACE 
	 for surface related to equilibrium_phase: H_gH.
WARNING: Suggest using master species formula in SURFACE 
	 for surface related to equilibrium_phase: H_hH.
WARNING: Suggest using master species formula in SURFACE 
	 for surface related to equilibrium_phase: Hfo_sOH.
WARNING: Suggest using master species formula in SURFACE 
	 for surface related to equilibrium_phase: Hfo_wOH.
------------------------------------------------------
Beginning of initial surface-composition calculations.
------------------------------------------------------

Surface 1.	

Diffuse Double Layer Surface-Complexation Model

H             
	 -9.748e-03  Surface charge, eq
	 -1.102e-02  sigma, C/m²
	 -3.536e-02  psi, V
	  1.376e+00  -F*psi/RT
	  3.960e+00  exp(-F*psi/RT)
	  3.417e+04  specific area, m²/g
	  8.536e+04  m² for   2.498e+00 g


H_a           
	  1.774e-03  moles
	                                   Mole                     Log
	Species               Moles    Fraction    Molality    Molality

	H_a-              1.773e-03       1.000   1.773e-03      -2.751
	H_aCa+            4.202e-07       0.000   4.202e-07      -6.377
	H_aH              2.326e-07       0.000   2.326e-07      -6.633

H_ab          
	  2.948e-04  moles
	                                   Mole                     Log
	Species               Moles    Fraction    Molality    Molality

	H_ab-2            2.943e-04       0.998   2.943e-04      -3.531
	H_abH-            4.972e-07       0.002   4.972e-07      -6.304
	H_abCa            2.205e-08       0.000   2.205e-08      -7.657
	H_abH2            6.520e-11       0.000   6.520e-11     -10.186

H_ad          
	  2.948e-04  moles
	                                   Mole                     Log
	Species               Moles    Fraction    Molality    Molality

	H_ad-2            2.268e-04       0.769   2.268e-04      -3.644
	H_adH-            6.508e-05       0.221   6.508e-05      -4.187
	H_adCa            2.887e-06       0.010   2.887e-06      -5.540
	H_adH2            8.534e-09       0.000   8.534e-09      -8.069

H_af          
	  2.948e-04  moles
	                                   Mole                     Log
	Species               Moles    Fraction    Molality    Molality

	H_afH-            2.934e-04       0.995   2.934e-04      -3.532
	H_afCa            1.160e-06       0.004   1.160e-06      -5.936
	H_af-2            1.659e-07       0.001   1.659e-07      -6.780
	H_afH2            3.848e-08       0.000   3.848e-08      -7.415

H_ah          
	  2.948e-04  moles
	                                   Mole                     Log
	Species               Moles    Fraction    Molality    Molality

	H_ahH-            2.948e-04       1.000   2.948e-04      -3.531
	H_ahH2            3.865e-08       0.000   3.865e-08      -7.413
	H_ahCa            2.072e-09       0.000   2.072e-09      -8.684
	H_ah-2            3.481e-11       0.000   3.481e-11     -10.458

H_b           
	  1.774e-03  moles
	                                   Mole                     Log
	Species               Moles    Fraction    Molality    Molality

	H_b-              1.766e-03       0.995   1.766e-03      -2.753
	H_bCa+            5.390e-06       0.003   5.390e-06      -5.268
	H_bH              2.983e-06       0.002   2.983e-06      -5.525

H_bc          
	  2.948e-04  moles
	                                   Mole                     Log
	Species               Moles    Fraction    Molality    Molality

	H_bc-2            2.848e-04       0.966   2.848e-04      -3.545
	H_bcH-            6.343e-06       0.022   6.343e-06      -5.198
	H_bcCa            3.625e-06       0.012   3.625e-06      -5.441
	H_bcH2            1.072e-08       0.000   1.072e-08      -7.970

H_be          
	  2.948e-04  moles
	                                   Mole                     Log
	Species               Moles    Fraction    Molality    Molality

	H_beH-            2.832e-04       0.961   2.832e-04      -3.548
	H_be-2            1.108e-05       0.038   1.108e-05      -4.956
	H_beH2            4.785e-07       0.002   4.785e-07      -6.320
	H_beCa            2.565e-08       0.000   2.565e-08      -7.591

H_bg          
	  2.948e-04  moles
	                                   Mole                     Log
	Species               Moles    Fraction    Molality    Molality

	H_bgH-            2.943e-04       0.998   2.943e-04      -3.531
	H_bgH2            4.971e-07       0.002   4.971e-07      -6.304
	H_bgCa            2.665e-08       0.000   2.665e-08      -7.574
	H_bg-2            2.404e-09       0.000   2.404e-09      -8.619

H_c           
	  1.774e-03  moles
	                                   Mole                     Log
	Species               Moles    Fraction    Molality    Molality

	H_c-              1.670e-03       0.941   1.670e-03      -2.777
	H_cCa+            6.719e-05       0.038   6.719e-05      -4.173
	H_cH              3.718e-05       0.021   3.718e-05      -4.430

H_cd          
	  2.948e-04  moles
	                                   Mole                     Log
	Species               Moles    Fraction    Molality    Molality

	H_cdCa            1.844e-04       0.626   1.844e-04      -3.734
	H_cd-2            8.534e-05       0.289   8.534e-05      -4.069
	H_cdH-            2.448e-05       0.083   2.448e-05      -4.611
	H_cdH2            5.453e-07       0.002   5.453e-07      -6.263

H_cf          
	  2.948e-04  moles
	                                   Mole                     Log
	Species               Moles    Fraction    Molality    Molality

	H_cfH-            2.879e-04       0.977   2.879e-04      -3.541
	H_cfH2            6.411e-06       0.022   6.411e-06      -5.193
	H_cfCa            3.437e-07       0.001   3.437e-07      -6.464
	H_cf-2            1.627e-07       0.001   1.627e-07      -6.789

H_ch          
	  2.948e-04  moles
	                                   Mole                     Log
	Species               Moles    Fraction    Molality    Molality

	H_chH-            2.880e-04       0.977   2.880e-04      -3.541
	H_chH2            6.415e-06       0.022   6.415e-06      -5.193
	H_chCa            3.439e-07       0.001   3.439e-07      -6.464
	H_ch-2            3.402e-11       0.000   3.402e-11     -10.468

H_d           
	  1.774e-03  moles
	                                   Mole                     Log
	Species               Moles    Fraction    Molality    Molality

	H_d-              9.827e-04       0.554   9.827e-04      -3.008
	H_dCa+            5.094e-04       0.287   5.094e-04      -3.293
	H_dH              2.819e-04       0.159   2.819e-04      -3.550

H_de          
	  2.948e-04  moles
	                                   Mole                     Log
	Species               Moles    Fraction    Molality    Molality

	H_deH-            2.198e-04       0.745   2.198e-04      -3.658
	H_deH2            6.305e-05       0.214   6.305e-05      -4.200
	H_de-2            8.595e-06       0.029   8.595e-06      -5.066
	H_deCa            3.380e-06       0.011   3.380e-06      -5.471

H_dg          
	  2.948e-04  moles
	                                   Mole                     Log
	Species               Moles    Fraction    Molality    Molality

	H_dgH-            2.264e-04       0.768   2.264e-04      -3.645
	H_dgH2            6.495e-05       0.220   6.495e-05      -4.187
	H_dgCa            3.482e-06       0.012   3.482e-06      -5.458
	H_dg-2            1.850e-09       0.000   1.850e-09      -8.733

H_e           
	  8.869e-04  moles
	                                   Mole                     Log
	Species               Moles    Fraction    Molality    Molality

	H_eH              8.533e-04       0.962   8.533e-04      -3.069
	H_e-              3.337e-05       0.038   3.337e-05      -4.477
	H_eCa+            2.501e-07       0.000   2.501e-07      -6.602

H_f           
	  8.869e-04  moles
	                                   Mole                     Log
	Species               Moles    Fraction    Molality    Molality

	H_fH              8.861e-04       0.999   8.861e-04      -3.052
	H_f-              5.009e-07       0.001   5.009e-07      -6.300
	H_fCa+            2.597e-07       0.000   2.597e-07      -6.586

H_g           
	  8.869e-04  moles
	                                   Mole                     Log
	Species               Moles    Fraction    Molality    Molality

	H_gH              8.866e-04       1.000   8.866e-04      -3.052
	H_gCa+            2.598e-07       0.000   2.598e-07      -6.585
	H_g-              7.245e-09       0.000   7.245e-09      -8.140

H_h           
	  8.869e-04  moles
	                                   Mole                     Log
	Species               Moles    Fraction    Molality    Molality

	H_hH              8.866e-04       1.000   8.866e-04      -3.052
	H_hCa+            2.598e-07       0.000   2.598e-07      -6.585
	H_h-              1.047e-10       0.000   1.047e-10      -9.980

Hfo           
	  4.785e-05  Surface charge, eq
	  7.624e-02  sigma, C/m²
	  1.203e-01  psi, V
	 -4.681e+00  -F*psi/RT
	  9.268e-03  exp(-F*psi/RT)
	  1.068e+04  specific area, m²/mol redoxFe(OH)3(a)
	  6.056e+01  m² for   5.671e-03 moles of redoxFe(OH)3(a)


Hfo_s         
	  2.835e-05  moles	[0.005 mol/(mol redoxFe(OH)3(a))]
	                                   Mole                     Log
	Species               Moles    Fraction    Molality    Molality

	Hfo_sOFerrous+    1.978e-05       0.698   1.978e-05      -4.704
	Hfo_sOH           6.553e-06       0.231   6.553e-06      -5.184
	Hfo_sOH2+         1.008e-06       0.036   1.008e-06      -5.997
	Hfo_sO-           9.759e-07       0.034   9.759e-07      -6.011
	Hfo_sOHCa+2       3.233e-08       0.001   3.233e-08      -7.490

Hfo_w         
	  1.134e-03  moles	[0.2 mol/(mol redoxFe(OH)3(a))]
	                                   Mole                     Log
	Species               Moles    Fraction    Molality    Molality

	Hfo_wOH           8.460e-04       0.746   8.460e-04      -3.073
	Hfo_wOH2+         1.301e-04       0.115   1.301e-04      -3.886
	Hfo_wO-           1.260e-04       0.111   1.260e-04      -3.900
	Hfo_wOFerrous+    2.384e-05       0.021   2.384e-05      -4.623
	Hfo_wOFerrousOH   8.131e-06       0.007   8.131e-06      -5.090
	Hfo_wOCa+         8.009e-09       0.000   8.009e-09      -8.096

-----------------------------------------
Beginning of batch-reaction calculations.
-----------------------------------------

Reaction step 1.

WARNING: Element Hzero is contained in gas redoxH2(g) (which has 0.0 mass),
but is not in solution or other phases.
WARNING: Element Hzero is contained in gas redoxH2(g) (which has 0.0 mass),
but is not in solution or other phases.
WARNING: Element Hzero is contained in gas redoxH2(g) (which has 0.0 mass),
but is not in solution or other phases.
WARNING: Element Hzero is contained in gas redoxH2(g) (which has 0.0 mass),
but is not in solution or other phases.
WARNING: Element Hzero is contained in gas redoxH2(g) (which has 0.0 mass),
but is not in solution or other phases.
WARNING: Element Hzero is contained in gas redoxH2(g) (which has 0.0 mass),
but is not in solution or other phases.
WARNING: Element Hzero is contained in gas redoxH2(g) (which has 0.0 mass),
but is not in solution or other phases.
WARNING: Element Hzero is contained in gas redoxH2(g) (which has 0.0 mass),
but is not in solution or other phases.
WARNING: Element Hzero is contained in gas redoxH2(g) (which has 0.0 mass),
but is not in solution or other phases.
WARNING: Element Hzero is contained in gas redoxH2(g) (which has 0.0 mass),
but is not in solution or other phases.
WARNING: Element Hzero is contained in gas redoxH2(g) (which has 0.0 mass),
but is not in solution or other phases.
WARNING: Element Hzero is contained in gas redoxH2(g) (which has 0.0 mass),
but is not in solution or other phases.
WARNING: Element Hzero is contained in gas redoxH2(g) (which has 0.0 mass),
but is not in solution or other phases.
WARNING: Element Hzero is contained in gas redoxH2(g) (which has 0.0 mass),
but is not in solution or other phases.
WARNING: Element Hzero is contained in gas redoxH2(g) (which has 0.0 mass),
but is not in solution or other phases.
WARNING: Element Hzero is contained in gas redoxH2(g) (which has 0.0 mass),
but is not in solution or other phases.
WARNING: Element Hzero is contained in gas redoxH2(g) (which has 0.0 mass),
but is not in solution or other phases.
WARNING: Element Hzero is contained in gas redoxH2(g) (which has 0.0 mass),
but is not in solution or other phases.
WARNING: Element Hzero is contained in gas redoxH2(g) (which has 0.0 mass),
but is not in solution or other phases.
WARNING: Element Hzero is contained in gas redoxH2(g) (which has 0.0 mass),
but is not in solution or other phases.
WARNING: Element Hzero is contained in gas redoxH2(g) (which has 0.0 mass),
but is not in solution or other phases.
WARNING: Element Hzero is contained in gas redoxH2(g) (which has 0.0 mass),
but is not in solution or other phases.
WARNING: Element Hzero is contained in gas redoxH2(g) (which has 0.0 mass),
but is not in solution or other phases.
WARNING: Element Hzero is contained in gas redoxH2(g) (which has 0.0 mass),
but is not in solution or other phases.
WARNING: Element Hzero is contained in gas redoxH2(g) (which has 0.0 mass),
but is not in solution or other phases.
WARNING: Element Hzero is contained in gas redoxH2(g) (which has 0.0 mass),
but is not in solution or other phases.
WARNING: Element Hzero is contained in gas redoxH2(g) (which has 0.0 mass),
but is not in solution or other phases.
WARNING: Element Hzero is contained in gas redoxH2(g) (which has 0.0 mass),
but is not in solution or other phases.
WARNING: Element Hzero is contained in gas redoxH2(g) (which has 0.0 mass),
but is not in solution or other phases.
WARNING: Element Hzero is contained in gas redoxH2(g) (which has 0.0 mass),
but is not in solution or other phases.
WARNING: Element Hzero is contained in gas redoxH2(g) (which has 0.0 mass),
but is not in solution or other phases.
WARNING: Element Hzero is contained in gas redoxH2(g) (which has 0.0 mass),
but is not in solution or other phases.
WARNING: Element Hzero is contained in gas redoxH2(g) (which has 0.0 mass),
but is not in solution or other phases.
WARNING: Element Hzero is contained in gas redoxH2(g) (which has 0.0 mass),
but is not in solution or other phases.
WARNING: Element Hzero is contained in gas redoxH2(g) (which has 0.0 mass),
but is not in solution or other phases.
WARNING: Element Hzero is contained in gas redoxH2(g) (which has 0.0 mass),
but is not in solution or other phases.
WARNING: Element Hzero is contained in gas redoxH2(g) (which has 0.0 mass),
but is not in solution or other phases.
WARNING: Element Hzero is contained in gas redoxH2(g) (which has 0.0 mass),
but is not in solution or other phases.
WARNING: Element Hzero is contained in gas redoxH2(g) (which has 0.0 mass),
but is not in solution or other phases.
WARNING: Element Hzero is contained in gas redoxH2(g) (which has 0.0 mass),
but is not in solution or other phases.
WARNING: Element Hzero is contained in gas redoxH2(g) (which has 0.0 mass),
but is not in solution or other phases.
WARNING: Element Hzero is contained in gas redoxH2(g) (which has 0.0 mass),
but is not in solution or other phases.
WARNING: Element Hzero is contained in gas redoxH2(g) (which has 0.0 mass),
but is not in solution or other phases.
WARNING: Element Hzero is contained in gas redoxH2(g) (which has 0.0 mass),
but is not in solution or other phases.
WARNING: Element Hzero is contained in gas redoxH2(g) (which has 0.0 mass),
but is not in solution or other phases.
WARNING: Element Hzero is contained in gas redoxH2(g) (which has 0.0 mass),
but is not in solution or other phases.
WARNING: Element Hzero is contained in gas redoxH2(g) (which has 0.0 mass),
but is not in solution or other phases.
WARNING: Element Hzero is contained in gas redoxH2(g) (which has 0.0 mass),
but is not in solution or other phases.
WARNING: Element Hzero is contained in gas redoxH2(g) (which has 0.0 mass),
but is not in solution or other phases.
WARNING: Element Hzero is contained in gas redoxH2(g) (which has 0.0 mass),
but is not in solution or other phases.
WARNING: Element Hzero is contained in gas redoxH2(g) (which has 0.0 mass),
but is not in solution or other phases.
WARNING: Element Hzero is contained in gas redoxH2(g) (which has 0.0 mass),
but is not in solution or other phases.
WARNING: Element Hzero is contained in gas redoxH2(g) (which has 0.0 mass),
but is not in solution or other phases.
WARNING: Element Hzero is contained in gas redoxH2(g) (which has 0.0 mass),
but is not in solution or other phases.
WARNING: Element Hzero is contained in gas redoxH2(g) (which has 0.0 mass),
but is not in solution or other phases.
WARNING: Element Hzero is contained in gas redoxH2(g) (which has 0.0 mass),
but is not in solution or other phases.
Using solution 1.	
Using surface 1.	
Using pure phase assemblage 1.	
Using gas phase 1.	fixed volume gas phase
Using kinetics 1.	Decomposition

Kinetics 1.	Decomposition

	Time step: 24 seconds  (Incremented time: 24 seconds)

	Rate name       Delta Moles Total Moles   Reactant        Coefficient

	BA                1.360e-03   5.759e-01   CH2O                      0
	POM1              2.408e-04   4.087e+00   CH2O                      0
	POM2             -8.284e-04   1.922e+00   CH2O                      0
	MOM               1.006e-03   1.010e+01   CH2O                      0
	DOM1             -6.936e-04   2.083e-01   CH2O                      0
	DOM2              6.178e-04   3.686e-01   CH2O                      0
	QOM1              1.766e-04   5.534e-02   CH2O                      0
	QOM2              8.321e-04   1.152e+00   CH2O                      0
	EP1               3.518e-07   2.789e-04   CH2O                      0
	EP2               1.028e-07   1.338e-04   CH2O                      0
	EM                2.330e-07   2.061e-04   CH2O                      0
	respiration       1.128e-03   1.054e-01   CH2O                      0
	                                          Cl-                     -50
	                                          HCO3                -0.0005
	                                          Na+                     -50
	                                          Ozero2                  1.1
	Tot               2.712e-03   1.847e+01   CH2O                      0

-----------------------------------Gas phase-----------------------------------

Total pressure:  1.00      atmospheres 
    Gas volume:   5.00e-01 liters
  Molar volume:   2.44e+01 liters/mole

                                                        Moles in gas
                                            ----------------------------------
Component                log P           P     Initial       Final       Delta

redoxCH4(g)             -11.34   4.588e-12   0.000e+00   9.377e-14   9.377e-14
redoxCO2(g)              -3.49   3.217e-04   0.000e+00   6.575e-06   6.575e-06
redoxH2(g)              -99.99   0.000e+00   0.000e+00   0.000e+00   0.000e+00
redoxNH3(g)             -11.15   7.003e-12   0.000e+00   1.431e-13   1.431e-13
redoxO2(g)                0.00   1.001e+00   2.167e-02   2.045e-02  -1.225e-03

-------------------------------Phase assemblage--------------------------------

                                                      Moles in assemblage
Phase               SI  log IAP  log K(T, P)   Initial       Final       Delta

redoxFe(OH)3(a)   -0.00     4.89      4.89    5.671e-03   5.671e-03  -6.211e-08

------------------------------Surface composition------------------------------

Diffuse Double Layer Surface-Complexation Model

H             
	 -1.078e-02  Surface charge, eq
	 -1.218e-02  sigma, C/m²
	 -1.928e-02  psi, V
	  7.506e-01  -F*psi/RT
	  2.118e+00  exp(-F*psi/RT)
	  3.417e+04  specific area, m²/g
	  8.536e+04  m² for   2.498e+00 g


H_a           
	  1.774e-03  moles
	                                   Mole                     Log
	Species               Moles    Fraction    Molality    Molality

	H_a-              1.774e-03       1.000   1.774e-03      -2.751
	H_aH              1.557e-07       0.000   1.557e-07      -6.808
	H_aCa+            1.214e-07       0.000   1.214e-07      -6.916

H_ab          
	  2.948e-04  moles
	                                   Mole                     Log
	Species               Moles    Fraction    Molality    Molality

	H_ab-2            2.945e-04       0.999   2.945e-04      -3.531
	H_abH-            3.331e-07       0.001   3.331e-07      -6.477
	H_abCa            6.372e-09       0.000   6.372e-09      -8.196
	H_abH2            2.924e-11       0.000   2.924e-11     -10.534

H_ad          
	  2.948e-04  moles
	                                   Mole                     Log
	Species               Moles    Fraction    Molality    Molality

	H_ad-2            2.465e-04       0.836   2.465e-04      -3.608
	H_adH-            4.735e-05       0.161   4.735e-05      -4.325
	H_adCa            9.060e-07       0.003   9.060e-07      -6.043
	H_adH2            4.158e-09       0.000   4.158e-09      -8.381

H_af          
	  2.948e-04  moles
	                                   Mole                     Log
	Species               Moles    Fraction    Molality    Molality

	H_afH-            2.940e-04       0.997   2.940e-04      -3.532
	H_afCa            5.013e-07       0.002   5.013e-07      -6.300
	H_af-2            2.483e-07       0.001   2.483e-07      -6.605
	H_afH2            2.581e-08       0.000   2.581e-08      -7.588

H_ah          
	  2.948e-04  moles
	                                   Mole                     Log
	Species               Moles    Fraction    Molality    Molality

	H_ahH-            2.948e-04       1.000   2.948e-04      -3.531
	H_ahH2            2.588e-08       0.000   2.588e-08      -7.587
	H_ahCa            8.938e-10       0.000   8.938e-10      -9.049
	H_ah-2            5.200e-11       0.000   5.200e-11     -10.284

H_b           
	  1.774e-03  moles
	                                   Mole                     Log
	Species               Moles    Fraction    Molality    Molality

	H_b-              1.770e-03       0.998   1.770e-03      -2.752
	H_bH              2.002e-06       0.001   2.002e-06      -5.698
	H_bCa+            1.561e-06       0.001   1.561e-06      -5.807

H_bc          
	  2.948e-04  moles
	                                   Mole                     Log
	Species               Moles    Fraction    Molality    Molality

	H_bc-2            2.894e-04       0.982   2.894e-04      -3.538
	H_bcH-            4.315e-06       0.015   4.315e-06      -5.365
	H_bcCa            1.064e-06       0.004   1.064e-06      -5.973
	H_bcH2            4.881e-09       0.000   4.881e-09      -8.312

H_be          
	  2.948e-04  moles
	                                   Mole                     Log
	Species               Moles    Fraction    Molality    Molality

	H_beH-            2.782e-04       0.944   2.782e-04      -3.556
	H_be-2            1.625e-05       0.055   1.625e-05      -4.789
	H_beH2            3.147e-07       0.001   3.147e-07      -6.502
	H_beCa            1.087e-08       0.000   1.087e-08      -7.964

H_bg          
	  2.948e-04  moles
	                                   Mole                     Log
	Species               Moles    Fraction    Molality    Molality

	H_bgH-            2.945e-04       0.999   2.945e-04      -3.531
	H_bgH2            3.330e-07       0.001   3.330e-07      -6.478
	H_bgCa            1.150e-08       0.000   1.150e-08      -7.939
	H_bg-2            3.594e-09       0.000   3.594e-09      -8.444

H_c           
	  1.774e-03  moles
	                                   Mole                     Log
	Species               Moles    Fraction    Molality    Molality

	H_c-              1.728e-03       0.974   1.728e-03      -2.762
	H_cH              2.577e-05       0.015   2.577e-05      -4.589
	H_cCa+            2.008e-05       0.011   2.008e-05      -4.697

H_cd          
	  2.948e-04  moles
	                                   Mole                     Log
	Species               Moles    Fraction    Molality    Molality

	H_cd-2            1.621e-04       0.550   1.621e-04      -3.790
	H_cdCa            1.011e-04       0.343   1.011e-04      -3.995
	H_cdH-            3.113e-05       0.106   3.113e-05      -4.507
	H_cdH2            4.641e-07       0.002   4.641e-07      -6.333

H_cf          
	  2.948e-04  moles
	                                   Mole                     Log
	Species               Moles    Fraction    Molality    Molality

	H_cfH-            2.901e-04       0.984   2.901e-04      -3.537
	H_cfH2            4.325e-06       0.015   4.325e-06      -5.364
	H_cf-2            2.449e-07       0.001   2.449e-07      -6.611
	H_cfCa            1.494e-07       0.001   1.494e-07      -6.826

H_ch          
	  2.948e-04  moles
	                                   Mole                     Log
	Species               Moles    Fraction    Molality    Molality

	H_chH-            2.903e-04       0.985   2.903e-04      -3.537
	H_chH2            4.329e-06       0.015   4.329e-06      -5.364
	H_chCa            1.495e-07       0.001   1.495e-07      -6.825
	H_ch-2            5.121e-11       0.000   5.121e-11     -10.291

H_d           
	  1.774e-03  moles
	                                   Mole                     Log
	Species               Moles    Fraction    Molality    Molality

	H_d-              1.322e-03       0.745   1.322e-03      -2.879
	H_dH              2.540e-04       0.143   2.540e-04      -3.595
	H_dCa+            1.979e-04       0.112   1.979e-04      -3.703

H_de          
	  2.948e-04  moles
	                                   Mole                     Log
	Species               Moles    Fraction    Molality    Molality

	H_deH-            2.345e-04       0.795   2.345e-04      -3.630
	H_deH2            4.504e-05       0.153   4.504e-05      -4.346
	H_de-2            1.370e-05       0.046   1.370e-05      -4.863
	H_deCa            1.556e-06       0.005   1.556e-06      -5.808

H_dg          
	  2.948e-04  moles
	                                   Mole                     Log
	Species               Moles    Fraction    Molality    Molality

	H_dgH-            2.459e-04       0.834   2.459e-04      -3.609
	H_dgH2            4.724e-05       0.160   4.724e-05      -4.326
	H_dgCa            1.631e-06       0.006   1.631e-06      -5.787
	H_dg-2            3.001e-09       0.000   3.001e-09      -8.523

H_e           
	  8.869e-04  moles
	                                   Mole                     Log
	Species               Moles    Fraction    Molality    Molality

	H_eH              8.379e-04       0.945   8.379e-04      -3.077
	H_e-              4.894e-05       0.055   4.894e-05      -4.310
	H_eCa+            1.059e-07       0.000   1.059e-07      -6.975

H_f           
	  8.869e-04  moles
	                                   Mole                     Log
	Species               Moles    Fraction    Molality    Molality

	H_fH              8.860e-04       0.999   8.860e-04      -3.053
	H_f-              7.481e-07       0.001   7.481e-07      -6.126
	H_fCa+            1.120e-07       0.000   1.120e-07      -6.951

H_g           
	  8.869e-04  moles
	                                   Mole                     Log
	Species               Moles    Fraction    Molality    Molality

	H_gH              8.868e-04       1.000   8.868e-04      -3.052
	H_gCa+            1.121e-07       0.000   1.121e-07      -6.950
	H_g-              1.082e-08       0.000   1.082e-08      -7.966

H_h           
	  8.869e-04  moles
	                                   Mole                     Log
	Species               Moles    Fraction    Molality    Molality

	H_hH              8.868e-04       1.000   8.868e-04      -3.052
	H_hCa+            1.121e-07       0.000   1.121e-07      -6.950
	H_h-              1.564e-10       0.000   1.564e-10      -9.806

Hfo           
	  1.009e-04  Surface charge, eq
	  1.607e-01  sigma, C/m²
	  1.195e-01  psi, V
	 -4.651e+00  -F*psi/RT
	  9.550e-03  exp(-F*psi/RT)
	  1.068e+04  specific area, m²/mol redoxFe(OH)3(a)
	  6.056e+01  m² for   5.671e-03 moles of redoxFe(OH)3(a)


Hfo_s         
	  2.835e-05  moles	[0.005 mol/(mol redoxFe(OH)3(a))]
	                                   Mole                     Log
	Species               Moles    Fraction    Molality    Molality

	Hfo_sOFerrous+    1.597e-05       0.563   1.597e-05      -4.797
	Hfo_sOH           9.388e-06       0.331   9.388e-06      -5.027
	Hfo_sOH2+         1.862e-06       0.066   1.862e-06      -5.730
	Hfo_sO-           1.084e-06       0.038   1.084e-06      -5.965
	Hfo_sOHCa+2       4.965e-08       0.002   4.965e-08      -7.304

Hfo_w         
	  1.134e-03  moles	[0.2 mol/(mol redoxFe(OH)3(a))]
	                                   Mole                     Log
	Species               Moles    Fraction    Molality    Molality

	Hfo_wOH           8.502e-04       0.750   8.502e-04      -3.070
	Hfo_wOH2+         1.687e-04       0.149   1.687e-04      -3.773
	Hfo_wO-           9.817e-05       0.087   9.817e-05      -4.008
	Hfo_wOFerrous+    1.350e-05       0.012   1.350e-05      -4.870
	Hfo_wOFerrousOH   3.562e-06       0.003   3.562e-06      -5.448
	Hfo_wOCa+         6.688e-09       0.000   6.688e-09      -8.175

-----------------------------Solution composition------------------------------

	Elements           Molality       Moles

	Acetate           4.380e-03   4.380e-03
	Amm               1.000e-06   1.000e-06
	C                 1.756e-05   1.756e-05
	Ca                1.456e-03   1.456e-03
	Cl                6.320e-02   6.320e-02
	Ferric            2.447e-07   2.447e-07
	Ferrous           4.019e-03   4.019e-03
	Glucose           5.400e-04   5.400e-04
	Methane           6.228e-15   6.228e-15
	Na                5.740e-02   5.740e-02
	Ozero             2.521e-03   2.521e-03

----------------------------Description of solution----------------------------

                                       pH  =   5.972      Charge balance
                                       pe  =  13.840      Adjusted to redox equilibrium
      Specific Conductance (µS/cm,  25°C)  = 6961
                        Activity of water  =   0.998
                 Ionic strength (mol/kgw)  =   7.305e-02
                       Mass of water (kg)  =   1.000e+00
                 Total alkalinity (eq/kg)  =   4.186e-03
                       Total CO2 (mol/kg)  =   1.756e-05
                         Temperature (°C)  =  25.00
                           Pressure (atm)  =  1.00
                  Electrical balance (eq)  =   9.739e-04
 Percent error, 100*(Cat-|An|)/(Cat+|An|)  =   0.72
                               Iterations  = 1901
                                  Total H  = 1.110127e+02
                                  Total O  = 5.550627e+01

----------------------------Distribution of species----------------------------

                                               Log       Log       Log    mole V
   Species          Molality    Activity  Molality  Activity     Gamma   cm³/mol

   H+              1.271e-06   1.065e-06    -5.896    -5.972    -0.077      0.00
   OH-             1.194e-08   9.375e-09    -7.923    -8.028    -0.105     (0)  
   H2O             5.551e+01   9.978e-01     1.744    -0.001     0.000     18.07
Acetate       4.380e-03
   Acetate-        4.180e-03   3.341e-03    -2.379    -2.476    -0.097     (0)  
   HAcetate        2.000e-04   2.034e-04    -3.699    -3.692     0.007     (0)  
Amm           1.000e-06
   AmmH4+          9.996e-07   7.709e-07    -6.000    -6.113    -0.113     (0)  
   AmmH3           4.055e-10   4.124e-10    -9.392    -9.385     0.007     (0)  
C(4)          1.756e-05
   CO2             1.077e-05   1.095e-05    -4.968    -4.960     0.007     (0)  
   HCO3-           5.654e-06   4.563e-06    -5.248    -5.341    -0.093     (0)  
   FerrousHCO3+    9.655e-07   7.716e-07    -6.015    -6.113    -0.097     (0)  
   NaHCO3          1.160e-07   1.180e-07    -6.935    -6.928     0.007     (0)  
   CaHCO3+         4.482e-08   3.617e-08    -7.349    -7.442    -0.093     (0)  
   FerrousCO3      8.012e-09   8.148e-09    -8.096    -8.089     0.007     (0)  
   CO3-2           4.737e-10   2.008e-10    -9.324    -9.697    -0.373     (0)  
   NaCO3-          2.152e-10   1.720e-10    -9.667    -9.764    -0.097     (0)  
   CaCO3           2.061e-10   2.096e-10    -9.686    -9.679     0.007     (0)  
Ca            1.456e-03
   Ca+2            1.456e-03   6.213e-04    -2.837    -3.207    -0.370     (0)  
   CaHCO3+         4.482e-08   3.617e-08    -7.349    -7.442    -0.093     (0)  
   CaCO3           2.061e-10   2.096e-10    -9.686    -9.679     0.007     (0)  
   CaOH+           1.208e-10   9.656e-11    -9.918   -10.015    -0.097     (0)  
Cl            6.320e-02
   Cl-             6.305e-02   4.962e-02    -1.200    -1.304    -0.104     (0)  
   FerrousCl+      1.449e-04   1.158e-04    -3.839    -3.936    -0.097     (0)  
   FerricCl+2      3.479e-13   1.419e-13   -12.459   -12.848    -0.389     (0)  
   FerricCl2+      3.936e-14   3.146e-14   -13.405   -13.502    -0.097     (0)  
   FerricCl3       1.535e-16   1.561e-16   -15.814   -15.807     0.007     (0)  
Ferric        2.447e-07
   Ferric(OH)2+    2.222e-07   1.776e-07    -6.653    -6.751    -0.097     (0)  
   Ferric(OH)3     2.107e-08   2.143e-08    -7.676    -7.669     0.007     (0)  
   FerricOH+2      1.404e-09   5.728e-10    -8.853    -9.242    -0.389     (0)  
   Ferric(OH)4-    2.290e-11   1.830e-11   -10.640   -10.737    -0.097     (0)  
   Ferric+3        4.635e-13   9.473e-14   -12.334   -13.024    -0.690     (0)  
   FerricCl+2      3.479e-13   1.419e-13   -12.459   -12.848    -0.389     (0)  
   FerricCl2+      3.936e-14   3.146e-14   -13.405   -13.502    -0.097     (0)  
   Ferric2(OH)2+4   3.187e-16   8.830e-18   -15.497   -17.054    -1.557     (0)  
   FerricCl3       1.535e-16   1.561e-16   -15.814   -15.807     0.007     (0)  
   Ferric3(OH)4+5   8.892e-20   3.277e-22   -19.051   -21.485    -2.434     (0)  
Ferrous       4.019e-03
   Ferrous+2       3.872e-03   1.691e-03    -2.412    -2.772    -0.360     (0)  
   FerrousCl+      1.449e-04   1.158e-04    -3.839    -3.936    -0.097     (0)  
   FerrousHCO3+    9.655e-07   7.716e-07    -6.015    -6.113    -0.097     (0)  
   FerrousOH+      6.267e-07   5.009e-07    -6.203    -6.300    -0.097     (0)  
   FerrousCO3      8.012e-09   8.148e-09    -8.096    -8.089     0.007     (0)  
Glucose       5.400e-04
   Glucose         5.400e-04   5.492e-04    -3.268    -3.260     0.007     (0)  
H(0)          0.000e+00
   H2              0.000e+00   0.000e+00   -42.781   -42.774     0.007     (0)  
Methane       6.228e-15
   MethaneH4       6.228e-15   6.334e-15   -14.206   -14.198     0.007     (0)  
Na            5.740e-02
   Na+             5.740e-02   4.599e-02    -1.241    -1.337    -0.096     (0)  
   NaHCO3          1.160e-07   1.180e-07    -6.935    -6.928     0.007     (0)  
   NaOH            2.798e-10   2.846e-10    -9.553    -9.546     0.007     (0)  
   NaCO3-          2.152e-10   1.720e-10    -9.667    -9.764    -0.097     (0)  
O(0)          2.885e-07
   O2              1.443e-07   1.467e-07    -6.841    -6.834     0.007     (0)  
Ozero         2.521e-03
   Ozero2          1.261e-03   1.282e-03    -2.899    -2.892     0.007     (0)  

------------------------------Saturation indices-------------------------------

  Phase               SI** log IAP   log K(298 K,   1 atm)

  FeRA           1030.58   -397.80-1428.38  C5H4O2Amm
  FixpH            -5.97     -5.97    0.00  H+
  H2(g)           -39.62    -42.77   -3.15  H2
  H2O(g)           -1.51     -0.00    1.51  H2O
  Halite           -4.22     -2.64    1.58  NaCl
  MeGA           1914.38   1705.13 -209.25  C5H4O2Amm
  ORA             487.48      9.05 -478.43  C5H4O2Amm
  ORM             758.95   -120.28 -879.23  C5H4O2Amm
  redoxAragonite   -4.57    -12.90   -8.34  CaCO3
  redoxCalcite     -4.42    -12.90   -8.48  CaCO3
  redoxCH4(g)     -11.34    -14.20   -2.86  MethaneH4
  redoxCO2(g)      -3.49     -4.96   -1.47  CO2
  redoxFe(OH)3(a)  -0.00      4.89    4.89  Ferric(OH)3
  redoxGoethite     5.89      4.89   -1.00  FerricOOH
  redoxHematite    13.79      9.78   -4.01  Ferric2O3
  redoxNH3(g)     -11.15     -9.38    1.77  AmmH3
  redoxO2(g)        0.00     -2.89   -2.89  Ozero2
  redoxSiderite    -1.58    -12.47  -10.89  FerrousCO3

**For a gas, SI = log10(fugacity). Fugacity = pressure * phi / 1 atm.
  For ideal gases, phi = 1.

Reaction step 2.

Using solution 1.	
Using surface 1.	
Using pure phase assemblage 1.	
Using gas phase 1.	fixed volume gas phase
Using kinetics 1.	Decomposition

Kinetics 1.	Decomposition

	Time step: 24 seconds  (Incremented time: 48 seconds)

	Rate name       Delta Moles Total Moles   Reactant        Coefficient

	BA                1.333e-03   5.772e-01   CH2O                      0
	POM1              2.491e-04   4.087e+00   CH2O                      0
	POM2             -8.153e-04   1.921e+00   CH2O                      0
	MOM               9.962e-04   1.010e+01   CH2O                      0
	DOM1             -5.625e-04   2.077e-01   CH2O                      0
	DOM2              6.250e-04   3.692e-01   CH2O                      0
	QOM1              7.237e-05   5.541e-02   CH2O                      0
	QOM2              8.234e-04   1.153e+00   CH2O                      0
	EP1               3.608e-07   2.793e-04   CH2O                      0
	EP2               1.070e-07   1.339e-04   CH2O                      0
	EM                2.394e-07   2.063e-04   CH2O                      0
	respiration       1.118e-03   1.066e-01   CH2O                      0
	                                          Cl-                     -50
	                                          HCO3                -0.0005
	                                          Na+                     -50
	                                          Ozero2                  1.1
	Tot               2.722e-03   1.848e+01   CH2O                      0

-----------------------------------Gas phase-----------------------------------

Total pressure:  0.94      atmospheres 
    Gas volume:   5.00e-01 liters
  Molar volume:   2.59e+01 liters/mole

                                                        Moles in gas
                                            ----------------------------------
Component                log P           P     Initial       Final       Delta

redoxCH4(g)             -11.34   4.592e-12   9.377e-14   9.385e-14   7.478e-17
redoxCO2(g)              -3.48   3.335e-04   6.575e-06   6.815e-06   2.398e-07
redoxH2(g)              -99.99   0.000e+00   0.000e+00   0.000e+00   0.000e+00
redoxNH3(g)             -11.21   6.200e-12   1.431e-13   1.267e-13  -1.640e-14
redoxO2(g)               -0.02   9.446e-01   2.045e-02   1.930e-02  -1.144e-03

-------------------------------Phase assemblage--------------------------------

                                                      Moles in assemblage
Phase               SI  log IAP  log K(T, P)   Initial       Final       Delta

redoxFe(OH)3(a)   -0.00     4.89      4.89    5.671e-03   5.671e-03  -2.317e-08

------------------------------Surface composition------------------------------

Diffuse Double Layer Surface-Complexation Model

H             
	 -1.101e-02  Surface charge, eq
	 -1.244e-02  sigma, C/m²
	 -1.496e-02  psi, V
	  5.824e-01  -F*psi/RT
	  1.790e+00  exp(-F*psi/RT)
	  3.417e+04  specific area, m²/g
	  8.536e+04  m² for   2.498e+00 g


H_a           
	  1.774e-03  moles
	                                   Mole                     Log
	Species               Moles    Fraction    Molality    Molality

	H_a-              1.774e-03       1.000   1.774e-03      -2.751
	H_aH              1.392e-07       0.000   1.392e-07      -6.856
	H_aCa+            7.877e-08       0.000   7.877e-08      -7.104

H_ab          
	  2.948e-04  moles
	                                   Mole                     Log
	Species               Moles    Fraction    Molality    Molality

	H_ab-2            2.945e-04       0.999   2.945e-04      -3.531
	H_abH-            2.977e-07       0.001   2.977e-07      -6.526
	H_abCa            4.136e-09       0.000   4.136e-09      -8.383
	H_abH2            2.336e-11       0.000   2.336e-11     -10.632

H_ad          
	  2.948e-04  moles
	                                   Mole                     Log
	Species               Moles    Fraction    Molality    Molality

	H_ad-2            2.511e-04       0.852   2.511e-04      -3.600
	H_adH-            4.311e-05       0.146   4.311e-05      -4.365
	H_adCa            5.988e-07       0.002   5.988e-07      -6.223
	H_adH2            3.382e-09       0.000   3.382e-09      -8.471

H_af          
	  2.948e-04  moles
	                                   Mole                     Log
	Species               Moles    Fraction    Molality    Molality

	H_afH-            2.941e-04       0.998   2.941e-04      -3.531
	H_afCa            3.642e-07       0.001   3.642e-07      -6.439
	H_af-2            2.779e-07       0.001   2.779e-07      -6.556
	H_afH2            2.308e-08       0.000   2.308e-08      -7.637

H_ah          
	  2.948e-04  moles
	                                   Mole                     Log
	Species               Moles    Fraction    Molality    Molality

	H_ahH-            2.948e-04       1.000   2.948e-04      -3.531
	H_ahH2            2.313e-08       0.000   2.313e-08      -7.636
	H_ahCa            6.490e-10       0.000   6.490e-10      -9.188
	H_ah-2            5.818e-11       0.000   5.818e-11     -10.235

H_b           
	  1.774e-03  moles
	                                   Mole                     Log
	Species               Moles    Fraction    Molality    Molality

	H_b-              1.771e-03       0.998   1.771e-03      -2.752
	H_bH              1.790e-06       0.001   1.790e-06      -5.747
	H_bCa+            1.013e-06       0.001   1.013e-06      -5.994

H_bc          
	  2.948e-04  moles
	                                   Mole                     Log
	Species               Moles    Fraction    Molality    Molality

	H_bc-2            2.902e-04       0.985   2.902e-04      -3.537
	H_bcH-            3.868e-06       0.013   3.868e-06      -5.413
	H_bcCa            6.922e-07       0.002   6.922e-07      -6.160
	H_bcH2            3.910e-09       0.000   3.910e-09      -8.408

H_be          
	  2.948e-04  moles
	                                   Mole                     Log
	Species               Moles    Fraction    Molality    Molality

	H_beH-            2.764e-04       0.938   2.764e-04      -3.558
	H_be-2            1.807e-05       0.061   1.807e-05      -4.743
	H_beH2            2.794e-07       0.001   2.794e-07      -6.554
	H_beCa            7.841e-09       0.000   7.841e-09      -8.106

H_bg          
	  2.948e-04  moles
	                                   Mole                     Log
	Species               Moles    Fraction    Molality    Molality

	H_bgH-            2.945e-04       0.999   2.945e-04      -3.531
	H_bgH2            2.977e-07       0.001   2.977e-07      -6.526
	H_bgCa            8.353e-09       0.000   8.353e-09      -8.078
	H_bg-2            4.021e-09       0.000   4.021e-09      -8.396

H_c           
	  1.774e-03  moles
	                                   Mole                     Log
	Species               Moles    Fraction    Molality    Molality

	H_c-              1.738e-03       0.980   1.738e-03      -2.760
	H_cH              2.316e-05       0.013   2.316e-05      -4.635
	H_cCa+            1.311e-05       0.007   1.311e-05      -4.883

H_cd          
	  2.948e-04  moles
	                                   Mole                     Log
	Species               Moles    Fraction    Molality    Molality

	H_cd-2            1.867e-04       0.633   1.867e-04      -3.729
	H_cdCa            7.562e-05       0.257   7.562e-05      -4.121
	H_cdH-            3.205e-05       0.109   3.205e-05      -4.494
	H_cdH2            4.271e-07       0.001   4.271e-07      -6.369

H_cf          
	  2.948e-04  moles
	                                   Mole                     Log
	Species               Moles    Fraction    Molality    Molality

	H_cfH-            2.905e-04       0.986   2.905e-04      -3.537
	H_cfH2            3.872e-06       0.013   3.872e-06      -5.412
	H_cf-2            2.745e-07       0.001   2.745e-07      -6.561
	H_cfCa            1.086e-07       0.000   1.086e-07      -6.964

H_ch          
	  2.948e-04  moles
	                                   Mole                     Log
	Species               Moles    Fraction    Molality    Molality

	H_chH-            2.908e-04       0.986   2.908e-04      -3.536
	H_chH2            3.875e-06       0.013   3.875e-06      -5.412
	H_chCa            1.087e-07       0.000   1.087e-07      -6.964
	H_ch-2            5.740e-11       0.000   5.740e-11     -10.241

H_d           
	  1.774e-03  moles
	                                   Mole                     Log
	Species               Moles    Fraction    Molality    Molality

	H_d-              1.398e-03       0.788   1.398e-03      -2.854
	H_dH              2.400e-04       0.135   2.400e-04      -3.620
	H_dCa+            1.358e-04       0.077   1.358e-04      -3.867

H_de          
	  2.948e-04  moles
	                                   Mole                     Log
	Species               Moles    Fraction    Molality    Molality

	H_deH-            2.374e-04       0.805   2.374e-04      -3.625
	H_deH2            4.075e-05       0.138   4.075e-05      -4.390
	H_de-2            1.552e-05       0.053   1.552e-05      -4.809
	H_deCa            1.144e-06       0.004   1.144e-06      -5.942

H_dg          
	  2.948e-04  moles
	                                   Mole                     Log
	Species               Moles    Fraction    Molality    Molality

	H_dgH-            2.506e-04       0.850   2.506e-04      -3.601
	H_dgH2            4.302e-05       0.146   4.302e-05      -4.366
	H_dgCa            1.207e-06       0.004   1.207e-06      -5.918
	H_dg-2            3.422e-09       0.000   3.422e-09      -8.466

H_e           
	  8.869e-04  moles
	                                   Mole                     Log
	Species               Moles    Fraction    Molality    Molality

	H_eH              8.324e-04       0.939   8.324e-04      -3.080
	H_e-              5.441e-05       0.061   5.441e-05      -4.264
	H_eCa+            7.640e-08       0.000   7.640e-08      -7.117

H_f           
	  8.869e-04  moles
	                                   Mole                     Log
	Species               Moles    Fraction    Molality    Molality

	H_fH              8.860e-04       0.999   8.860e-04      -3.053
	H_f-              8.370e-07       0.001   8.370e-07      -6.077
	H_fCa+            8.132e-08       0.000   8.132e-08      -7.090

H_g           
	  8.869e-04  moles
	                                   Mole                     Log
	Species               Moles    Fraction    Molality    Molality

	H_gH              8.868e-04       1.000   8.868e-04      -3.052
	H_gCa+            8.140e-08       0.000   8.140e-08      -7.089
	H_g-              1.211e-08       0.000   1.211e-08      -7.917

H_h           
	  8.869e-04  moles
	                                   Mole                     Log
	Species               Moles    Fraction    Molality    Molality

	H_hH              8.868e-04       1.000   8.868e-04      -3.052
	H_hCa+            8.140e-08       0.000   8.140e-08      -7.089
	H_h-              1.750e-10       0.000   1.750e-10      -9.757

Hfo           
	  1.297e-04  Surface charge, eq
	  2.067e-01  sigma, C/m²
	  1.179e-01  psi, V
	 -4.587e+00  -F*psi/RT
	  1.018e-02  exp(-F*psi/RT)
	  1.068e+04  specific area, m²/mol redoxFe(OH)3(a)
	  6.056e+01  m² for   5.671e-03 moles of redoxFe(OH)3(a)


Hfo_s         
	  2.835e-05  moles	[0.005 mol/(mol redoxFe(OH)3(a))]
	                                   Mole                     Log
	Species               Moles    Fraction    Molality    Molality

	Hfo_sOFerrous+    1.470e-05       0.518   1.470e-05      -4.833
	Hfo_sOH           1.025e-05       0.362   1.025e-05      -4.989
	Hfo_sOH2+         2.293e-06       0.081   2.293e-06      -5.640
	Hfo_sO-           1.051e-06       0.037   1.051e-06      -5.979
	Hfo_sOHCa+2       5.597e-08       0.002   5.597e-08      -7.252

Hfo_w         
	  1.134e-03  moles	[0.2 mol/(mol redoxFe(OH)3(a))]
	                                   Mole                     Log
	Species               Moles    Fraction    Molality    Molality

	Hfo_wOH           8.447e-04       0.745   8.447e-04      -3.073
	Hfo_wOH2+         1.889e-04       0.167   1.889e-04      -3.724
	Hfo_wO-           8.654e-05       0.076   8.654e-05      -4.063
	Hfo_wOFerrous+    1.130e-05       0.010   1.130e-05      -4.947
	Hfo_wOFerrousOH   2.641e-06       0.002   2.641e-06      -5.578
	Hfo_wOCa+         6.085e-09       0.000   6.085e-09      -8.216

-----------------------------Solution composition------------------------------

	Elements           Molality       Moles

	Acetate           4.380e-03   4.380e-03
	Amm               1.000e-06   1.000e-06
	C                 1.788e-05   1.788e-05
	Ca                1.553e-03   1.553e-03
	Cl                1.191e-01   1.191e-01
	Ferric            2.679e-07   2.679e-07
	Ferrous           4.023e-03   4.023e-03
	Glucose           5.400e-04   5.400e-04
	Methane           6.153e-15   6.153e-15
	Na                1.133e-01   1.133e-01
	Ozero             2.350e-03   2.350e-03

----------------------------Description of solution----------------------------

                                       pH  =   5.948      Charge balance
                                       pe  =  13.940      Adjusted to redox equilibrium
      Specific Conductance (µS/cm,  25°C)  = 12441
                        Activity of water  =   0.996
                 Ionic strength (mol/kgw)  =   1.290e-01
                       Mass of water (kg)  =   1.000e+00
                 Total alkalinity (eq/kg)  =   4.186e-03
                       Total CO2 (mol/kg)  =   1.788e-05
                         Temperature (°C)  =  25.00
                           Pressure (atm)  =  0.94
                  Electrical balance (eq)  =   1.177e-03
 Percent error, 100*(Cat-|An|)/(Cat+|An|)  =   0.48
                               Iterations  = 187
                                  Total H  = 1.110127e+02
                                  Total O  = 5.550627e+01

----------------------------Distribution of species----------------------------

                                               Log       Log       Log    mole V
   Species          Molality    Activity  Molality  Activity     Gamma   cm³/mol

   H+              1.382e-06   1.127e-06    -5.859    -5.948    -0.089      0.00
   OH-             1.193e-08   8.849e-09    -7.923    -8.053    -0.130     (0)  
   H2O             5.551e+01   9.959e-01     1.744    -0.002     0.000     18.07
Acetate       4.380e-03
   Acetate-        4.180e-03   3.207e-03    -2.379    -2.494    -0.115     (0)  
   HAcetate        2.004e-04   2.065e-04    -3.698    -3.685     0.013     (0)  
Amm           1.000e-06
   AmmH4+          9.996e-07   7.218e-07    -6.000    -6.142    -0.141     (0)  
   AmmH3           3.544e-10   3.651e-10    -9.450    -9.438     0.013     (0)  
C(4)          1.788e-05
   CO2             1.102e-05   1.135e-05    -4.958    -4.945     0.013     (0)  
   HCO3-           5.775e-06   4.464e-06    -5.238    -5.350    -0.112     (0)  
   FerrousHCO3+    8.225e-07   6.311e-07    -6.085    -6.200    -0.115     (0)  
   NaHCO3          2.119e-07   2.183e-07    -6.674    -6.661     0.013     (0)  
   CaHCO3+         4.159e-08   3.214e-08    -7.381    -7.493    -0.112     (0)  
   FerrousCO3      6.118e-09   6.302e-09    -8.213    -8.201     0.013     (0)  
   CO3-2           5.208e-10   1.858e-10    -9.283    -9.731    -0.448     (0)  
   NaCO3-          3.922e-10   3.010e-10    -9.406    -9.522    -0.115     (0)  
   CaCO3           1.710e-10   1.762e-10    -9.767    -9.754     0.013     (0)  
Ca            1.553e-03
   Ca+2            1.553e-03   5.644e-04    -2.809    -3.248    -0.440     (0)  
   CaHCO3+         4.159e-08   3.214e-08    -7.381    -7.493    -0.112     (0)  
   CaCO3           1.710e-10   1.762e-10    -9.767    -9.754     0.013     (0)  
   CaOH+           1.079e-10   8.280e-11    -9.967   -10.082    -0.115     (0)  
Cl            1.191e-01
   Cl-             1.189e-01   8.857e-02    -0.925    -1.053    -0.128     (0)  
   FerrousCl+      2.253e-04   1.729e-04    -3.647    -3.762    -0.115     (0)  
   FerricCl+2      8.692e-13   3.013e-13   -12.061   -12.521    -0.460     (0)  
   FerricCl2+      1.553e-13   1.192e-13   -12.809   -12.924    -0.115     (0)  
   FerricCl3       1.025e-15   1.056e-15   -14.989   -14.976     0.013     (0)  
Ferric        2.679e-07
   Ferric(OH)2+    2.452e-07   1.882e-07    -6.610    -6.725    -0.115     (0)  
   Ferric(OH)3     2.080e-08   2.143e-08    -7.682    -7.669     0.013     (0)  
   FerricOH+2      1.855e-09   6.429e-10    -8.732    -9.192    -0.460     (0)  
   Ferric(OH)4-    2.252e-11   1.728e-11   -10.648   -10.763    -0.115     (0)  
   FerricCl+2      8.692e-13   3.013e-13   -12.061   -12.521    -0.460     (0)  
   Ferric+3        7.100e-13   1.126e-13   -12.149   -12.948    -0.800     (0)  
   FerricCl2+      1.553e-13   1.192e-13   -12.809   -12.924    -0.115     (0)  
   FerricCl3       1.025e-15   1.056e-15   -14.989   -14.976     0.013     (0)  
   Ferric2(OH)2+4   7.705e-16   1.112e-17   -15.113   -16.954    -1.841     (0)  
   Ferric3(OH)4+5   3.285e-19   4.373e-22   -18.483   -21.359    -2.876     (0)  
Ferrous       4.023e-03
   Ferrous+2       3.796e-03   1.414e-03    -2.421    -2.850    -0.429     (0)  
   FerrousCl+      2.253e-04   1.729e-04    -3.647    -3.762    -0.115     (0)  
   FerrousHCO3+    8.225e-07   6.311e-07    -6.085    -6.200    -0.115     (0)  
   FerrousOH+      5.151e-07   3.952e-07    -6.288    -6.403    -0.115     (0)  
   FerrousCO3      6.118e-09   6.302e-09    -8.213    -8.201     0.013     (0)  
Glucose       5.400e-04
   Glucose         5.400e-04   5.563e-04    -3.268    -3.255     0.013     (0)  
H(0)          0.000e+00
   H2              0.000e+00   0.000e+00   -42.939   -42.926     0.013     (0)  
Methane       6.153e-15
   MethaneH4       6.153e-15   6.339e-15   -14.211   -14.198     0.013     (0)  
Na            1.133e-01
   Na+             1.133e-01   8.698e-02    -0.946    -1.061    -0.115     (0)  
   NaHCO3          2.119e-07   2.183e-07    -6.674    -6.661     0.013     (0)  
   NaOH            4.931e-10   5.080e-10    -9.307    -9.294     0.013     (0)  
   NaCO3-          3.922e-10   3.010e-10    -9.406    -9.522    -0.115     (0)  
O(0)          5.703e-07
   O2              2.851e-07   2.937e-07    -6.545    -6.532     0.013     (0)  
Ozero         2.350e-03
   Ozero2          1.175e-03   1.210e-03    -2.930    -2.917     0.013     (0)  

------------------------------Saturation indices-------------------------------

  Phase               SI** log IAP   log K(298 K,   1 atm)

  FeRA           1049.39   -378.99-1428.38  C5H4O2Amm
  FixpH            -5.95     -5.95    0.00  H+
  H2(g)           -39.78    -42.93   -3.15  H2
  H2O(g)           -1.51     -0.00    1.51  H2O
  Halite           -3.70     -2.11    1.58  NaCl
  MeGA           1913.40   1704.15 -209.25  C5H4O2Amm
  ORA             487.19      8.76 -478.43  C5H4O2Amm
  ORM             758.52   -120.71 -879.23  C5H4O2Amm
  redoxAragonite   -4.64    -12.98   -8.34  CaCO3
  redoxCalcite     -4.50    -12.98   -8.48  CaCO3
  redoxCH4(g)     -11.34    -14.20   -2.86  MethaneH4
  redoxCO2(g)      -3.48     -4.94   -1.47  CO2
  redoxFe(OH)3(a)  -0.00      4.89    4.89  Ferric(OH)3
  redoxGoethite     5.89      4.89   -1.00  FerricOOH
  redoxHematite    13.80      9.79   -4.01  Ferric2O3
  redoxNH3(g)     -11.21     -9.44    1.77  AmmH3
  redoxO2(g)       -0.02     -2.92   -2.89  Ozero2
  redoxSiderite    -1.69    -12.58  -10.89  FerrousCO3

**For a gas, SI = log10(fugacity). Fugacity = pressure * phi / 1 atm.
  For ideal gases, phi = 1.

Reaction step 3.

Using solution 1.	
Using surface 1.	
Using pure phase assemblage 1.	
Using gas phase 1.	fixed volume gas phase
Using kinetics 1.	Decomposition

Kinetics 1.	Decomposition

	Time step: 24 seconds  (Incremented time: 72 seconds)

	Rate name       Delta Moles Total Moles   Reactant        Coefficient

	BA                1.321e-03   5.785e-01   CH2O                      0
	POM1              2.529e-04   4.087e+00   CH2O                      0
	POM2             -8.103e-04   1.921e+00   CH2O                      0
	MOM               9.924e-04   1.010e+01   CH2O                      0
	DOM1             -4.952e-04   2.072e-01   CH2O                      0
	DOM2              6.318e-04   3.699e-01   CH2O                      0
	QOM1              1.629e-05   5.543e-02   CH2O                      0
	QOM2              8.153e-04   1.154e+00   CH2O                      0
	EP1               3.693e-07   2.796e-04   CH2O                      0
	EP2               1.109e-07   1.340e-04   CH2O                      0
	EM                2.455e-07   2.066e-04   CH2O                      0
	respiration       1.114e-03   1.077e-01   CH2O                      0
	                                          Cl-                     -50
	                                          HCO3                -0.0005
	                                          Na+                     -50
	                                          Ozero2                  1.1
	Tot               2.726e-03   1.848e+01   CH2O                      0

-----------------------------------Gas phase-----------------------------------

Total pressure:  0.89      atmospheres 
    Gas volume:   5.00e-01 liters
  Molar volume:   2.75e+01 liters/mole

                                                        Moles in gas
                                            ----------------------------------
Component                log P           P     Initial       Final       Delta

redoxCH4(g)             -11.34   4.596e-12   9.385e-14   9.392e-14   7.362e-17
redoxCO2(g)              -3.46   3.430e-04   6.815e-06   7.010e-06   1.954e-07
redoxH2(g)              -99.99   0.000e+00   0.000e+00   0.000e+00   0.000e+00
redoxNH3(g)             -11.24   5.768e-12   1.267e-13   1.179e-13  -8.844e-15
redoxO2(g)               -0.05   8.887e-01   1.930e-02   1.816e-02  -1.142e-03

-------------------------------Phase assemblage--------------------------------

                                                      Moles in assemblage
Phase               SI  log IAP  log K(T, P)   Initial       Final       Delta

redoxFe(OH)3(a)    0.00     4.89      4.89    5.671e-03   5.671e-03  -1.260e-08

------------------------------Surface composition------------------------------

Diffuse Double Layer Surface-Complexation Model

H             
	 -1.112e-02  Surface charge, eq
	 -1.257e-02  sigma, C/m²
	 -1.268e-02  psi, V
	  4.936e-01  -F*psi/RT
	  1.638e+00  exp(-F*psi/RT)
	  3.417e+04  specific area, m²/g
	  8.536e+04  m² for   2.498e+00 g


H_a           
	  1.774e-03  moles
	                                   Mole                     Log
	Species               Moles    Fraction    Molality    Molality

	H_a-              1.774e-03       1.000   1.774e-03      -2.751
	H_aH              1.306e-07       0.000   1.306e-07      -6.884
	H_aCa+            6.131e-08       0.000   6.131e-08      -7.212

H_ab          
	  2.948e-04  moles
	                                   Mole                     Log
[...]
  redoxFe(OH)3(a)  -0.00      4.89    4.89  Ferric(OH)3
  redoxGoethite     5.91      4.91   -1.00  FerricOOH
  redoxHematite    13.84      9.83   -4.01  Ferric2O3
  redoxNH3(g)     -11.36     -9.59    1.77  AmmH3
  redoxSiderite    -1.90    -12.79  -10.89  FerrousCO3

**For a gas, SI = log10(fugacity). Fugacity = pressure * phi / 1 atm.
  For ideal gases, phi = 1.

Reaction step 30.

Using solution 1.	
Using surface 1.	
Using pure phase assemblage 1.	
Using gas phase 1.	fixed volume gas phase
Using kinetics 1.	Decomposition

Kinetics 1.	Decomposition

	Time step: 24 seconds  (Incremented time: 720 seconds)

	Rate name       Delta Moles Total Moles   Reactant        Coefficient

	BA               -1.041e-03   5.869e-01   CH2O                      0
	POM1              9.928e-04   4.103e+00   CH2O                      0
	POM2             -8.169e-04   1.899e+00   CH2O                      0
	MOM               6.484e-04   1.013e+01   CH2O                      0
	DOM1              2.061e-03   2.246e-01   CH2O                      0
	DOM2              9.486e-04   3.914e-01   CH2O                      0
	QOM1              2.314e-04   5.699e-02   CH2O                      0
	QOM2              8.158e-04   1.175e+00   CH2O                      0
	EP1               2.606e-07   2.904e-04   CH2O                      0
	EP2               5.125e-08   1.373e-04   CH2O                      0
	EM                1.588e-07   2.137e-04   CH2O                      0
	respiration      -0.000e+00   1.252e-01   CH2O                      0
	                                          Cl-                     -50
	                                          HCO3                -0.0005
	                                          Na+                     -50
	                                          Ozero2                  1.1
	Tot               3.840e-03   1.856e+01   CH2O                      0

-----------------------------------Gas phase-----------------------------------

Total pressure:  0.00      atmospheres 
    Gas volume:   5.00e-01 liters
  Molar volume:   5.17e+04 liters/mole

                                                        Moles in gas
                                            ----------------------------------
Component                log P           P     Initial       Final       Delta

redoxCH4(g)             -11.33   4.647e-12   9.497e-14   9.497e-14   0.000e+00
redoxCO2(g)              -3.33   4.729e-04   9.664e-06   9.664e-06   1.287e-19
redoxH2(g)              -99.99   0.000e+00   0.000e+00   0.000e+00   0.000e+00
redoxNH3(g)             -11.36   4.359e-12   8.908e-14   8.908e-14   0.000e+00
redoxO2(g)              -99.99   0.000e+00   0.000e+00   0.000e+00   0.000e+00

-------------------------------Phase assemblage--------------------------------

                                                      Moles in assemblage
Phase               SI  log IAP  log K(T, P)   Initial       Final       Delta

redoxFe(OH)3(a)    0.00     4.89      4.89    5.671e-03   5.671e-03   0.000e+00

------------------------------Surface composition------------------------------

Diffuse Double Layer Surface-Complexation Model

H             
	 -1.142e-02  Surface charge, eq
	 -1.291e-02  sigma, C/m²
	 -5.482e-03  psi, V
	  2.134e-01  -F*psi/RT
	  1.238e+00  exp(-F*psi/RT)
	  3.417e+04  specific area, m²/g
	  8.536e+04  m² for   2.498e+00 g


H_a           
	  1.774e-03  moles
	                                   Mole                     Log
	Species               Moles    Fraction    Molality    Molality

	H_a-              1.774e-03       1.000   1.774e-03      -2.751
	H_aH              9.850e-08       0.000   9.850e-08      -7.007
	H_aCa+            2.795e-08       0.000   2.795e-08      -7.554

H_ab          
	  2.948e-04  moles
	                                   Mole                     Log
	Species               Moles    Fraction    Molality    Molality

	H_ab-2            2.946e-04       0.999   2.946e-04      -3.531
	H_abH-            2.107e-07       0.001   2.107e-07      -6.676
	H_abCa            1.468e-09       0.000   1.468e-09      -8.833
	H_abH2            1.170e-11       0.000   1.170e-11     -10.932

H_ad          
	  2.948e-04  moles
	                                   Mole                     Log
	Species               Moles    Fraction    Molality    Molality

	H_ad-2            2.627e-04       0.891   2.627e-04      -3.581
	H_adH-            3.191e-05       0.108   3.191e-05      -4.496
	H_adCa            2.222e-07       0.001   2.222e-07      -6.653
	H_adH2            1.772e-09       0.000   1.772e-09      -8.752

H_af          
	  2.948e-04  moles
	                                   Mole                     Log
	Species               Moles    Fraction    Molality    Molality

	H_afH-            2.942e-04       0.998   2.942e-04      -3.531
	H_af-2            3.928e-07       0.001   3.928e-07      -6.406
	H_afCa            1.826e-07       0.001   1.826e-07      -6.738
	H_afH2            1.634e-08       0.000   1.634e-08      -7.787

H_ah          
	  2.948e-04  moles
	                                   Mole                     Log
	Species               Moles    Fraction    Molality    Molality

	H_ahH-            2.948e-04       1.000   2.948e-04      -3.530
	H_ahH2            1.637e-08       0.000   1.637e-08      -7.786
	H_ahCa            3.254e-10       0.000   3.254e-10      -9.488
	H_ah-2            8.223e-11       0.000   8.223e-11     -10.085

H_b           
	  1.774e-03  moles
	                                   Mole                     Log
	Species               Moles    Fraction    Molality    Molality

	H_b-              1.772e-03       0.999   1.772e-03      -2.751
	H_bH              1.268e-06       0.001   1.268e-06      -5.897
	H_bCa+            3.597e-07       0.000   3.597e-07      -6.444

H_bc          
	  2.948e-04  moles
	                                   Mole                     Log
	Species               Moles    Fraction    Molality    Molality

	H_bc-2            2.918e-04       0.990   2.918e-04      -3.535
	H_bcH-            2.752e-06       0.009   2.752e-06      -5.560
	H_bcCa            2.469e-07       0.001   2.469e-07      -6.608
	H_bcH2            1.968e-09       0.000   1.968e-09      -8.706

H_be          
	  2.948e-04  moles
	                                   Mole                     Log
	Species               Moles    Fraction    Molality    Molality

	H_beH-            2.697e-04       0.915   2.697e-04      -3.569
	H_be-2            2.491e-05       0.084   2.491e-05      -4.604
	H_beH2            1.929e-07       0.001   1.929e-07      -6.715
	H_beCa            3.835e-09       0.000   3.835e-09      -8.416

H_bg          
	  2.948e-04  moles
	                                   Mole                     Log
	Species               Moles    Fraction    Molality    Molality

	H_bgH-            2.946e-04       0.999   2.946e-04      -3.531
	H_bgH2            2.107e-07       0.001   2.107e-07      -6.676
	H_bg-2            5.685e-09       0.000   5.685e-09      -8.245
	H_bgCa            4.189e-09       0.000   4.189e-09      -8.378

H_c           
	  1.774e-03  moles
	                                   Mole                     Log
	Species               Moles    Fraction    Molality    Molality

	H_c-              1.753e-03       0.988   1.753e-03      -2.756
	H_cH              1.653e-05       0.009   1.653e-05      -4.782
	H_cCa+            4.690e-06       0.003   4.690e-06      -5.329

H_cd          
	  2.948e-04  moles
	                                   Mole                     Log
	Species               Moles    Fraction    Molality    Molality

	H_cd-2            2.328e-04       0.790   2.328e-04      -3.633
	H_cdCa            3.345e-05       0.113   3.345e-05      -4.476
	H_cdH-            2.828e-05       0.096   2.828e-05      -4.549
	H_cdH2            2.667e-07       0.001   2.667e-07      -6.574

H_cf          
	  2.948e-04  moles
	                                   Mole                     Log
	Species               Moles    Fraction    Molality    Molality

	H_cfH-            2.916e-04       0.989   2.916e-04      -3.535
	H_cfH2            2.750e-06       0.009   2.750e-06      -5.561
	H_cf-2            3.893e-07       0.001   3.893e-07      -6.410
	H_cfCa            5.466e-08       0.000   5.466e-08      -7.262

H_ch          
	  2.948e-04  moles
	                                   Mole                     Log
	Species               Moles    Fraction    Molality    Molality

	H_chH-            2.920e-04       0.990   2.920e-04      -3.535
	H_chH2            2.753e-06       0.009   2.753e-06      -5.560
	H_chCa            5.474e-08       0.000   5.474e-08      -7.262
	H_ch-2            8.145e-11       0.000   8.145e-11     -10.089

H_d           
	  1.774e-03  moles
	                                   Mole                     Log
	Species               Moles    Fraction    Molality    Molality

	H_d-              1.535e-03       0.865   1.535e-03      -2.814
	H_dH              1.864e-04       0.105   1.864e-04      -3.729
	H_dCa+            5.290e-05       0.030   5.290e-05      -4.277

H_de          
	  2.948e-04  moles
	                                   Mole                     Log
	Species               Moles    Fraction    Molality    Molality

	H_deH-            2.424e-04       0.822   2.424e-04      -3.615
	H_deH2            2.944e-05       0.100   2.944e-05      -4.531
	H_de-2            2.239e-05       0.076   2.239e-05      -4.650
	H_deCa            5.853e-07       0.002   5.853e-07      -6.233

H_dg          
	  2.948e-04  moles
	                                   Mole                     Log
	Species               Moles    Fraction    Molality    Molality

	H_dgH-            2.623e-04       0.890   2.623e-04      -3.581
	H_dgH2            3.186e-05       0.108   3.186e-05      -4.497
	H_dgCa            6.334e-07       0.002   6.334e-07      -6.198
	H_dg-2            5.062e-09       0.000   5.062e-09      -8.296

H_e           
	  8.869e-04  moles
	                                   Mole                     Log
	Species               Moles    Fraction    Molality    Molality

	H_eH              8.119e-04       0.915   8.119e-04      -3.091
	H_e-              7.499e-05       0.085   7.499e-05      -4.125
	H_eCa+            3.736e-08       0.000   3.736e-08      -7.428

H_f           
	  8.869e-04  moles
	                                   Mole                     Log
	Species               Moles    Fraction    Molality    Molality

	H_fH              8.857e-04       0.999   8.857e-04      -3.053
	H_f-              1.182e-06       0.001   1.182e-06      -5.927
	H_fCa+            4.076e-08       0.000   4.076e-08      -7.390

H_g           
	  8.869e-04  moles
	                                   Mole                     Log
	Species               Moles    Fraction    Molality    Molality

	H_gH              8.868e-04       1.000   8.868e-04      -3.052
	H_gCa+            4.081e-08       0.000   4.081e-08      -7.389
	H_g-              1.711e-08       0.000   1.711e-08      -7.767

H_h           
	  8.869e-04  moles
	                                   Mole                     Log
	Species               Moles    Fraction    Molality    Molality

	H_hH              8.869e-04       1.000   8.869e-04      -3.052
	H_hCa+            4.081e-08       0.000   4.081e-08      -7.389
	H_h-              2.474e-10       0.000   2.474e-10      -9.607

Hfo           
	  2.823e-04  Surface charge, eq
	  4.499e-01  sigma, C/m²
	  1.041e-01  psi, V
	 -4.052e+00  -F*psi/RT
	  1.739e-02  exp(-F*psi/RT)
	  1.068e+04  specific area, m²/mol redoxFe(OH)3(a)
	  6.056e+01  m² for   5.671e-03 moles of redoxFe(OH)3(a)


Hfo_s         
	  2.835e-05  moles	[0.005 mol/(mol redoxFe(OH)3(a))]
	                                   Mole                     Log
	Species               Moles    Fraction    Molality    Molality

	Hfo_sOFerrous+    1.239e-05       0.437   1.239e-05      -4.907
	Hfo_sOH           1.093e-05       0.385   1.093e-05      -4.962
	Hfo_sOH2+         4.271e-06       0.151   4.271e-06      -5.369
	Hfo_sO-           6.404e-07       0.023   6.404e-07      -6.194
	Hfo_sOHCa+2       1.291e-07       0.005   1.291e-07      -6.889

Hfo_w         
	  1.134e-03  moles	[0.2 mol/(mol redoxFe(OH)3(a))]
	                                   Mole                     Log
	Species               Moles    Fraction    Molality    Molality

	Hfo_wOH           7.760e-04       0.684   7.760e-04      -3.110
	Hfo_wOH2+         3.033e-04       0.267   3.033e-04      -3.518
	Hfo_wO-           4.548e-05       0.040   4.548e-05      -4.342
	Hfo_wOFerrous+    8.210e-06       0.007   8.210e-06      -5.086
	Hfo_wOFerrousOH   1.063e-06       0.001   1.063e-06      -5.974
	Hfo_wOCa+         6.923e-09       0.000   6.923e-09      -8.160

-----------------------------Solution composition------------------------------

	Elements           Molality       Moles

	Acetate           4.380e-03   4.380e-03
	Amm               1.000e-06   1.000e-06
	C                 2.434e-05   2.434e-05
	Ca                1.690e-03   1.690e-03
	Cl                1.050e+00   1.050e+00
	Ferric            2.670e-07   2.670e-07
	Ferrous           4.030e-03   4.030e-03
	Glucose           5.400e-04   5.400e-04
	Methane           5.027e-15   5.027e-15
	Na                1.044e+00   1.044e+00

----------------------------Description of solution----------------------------

                                       pH  =   5.938      Charge balance
                                       pe  =  14.220      Adjusted to redox equilibrium
      Specific Conductance (µS/cm,  25°C)  = 82712
                        Activity of water  =   0.964
                 Ionic strength (mol/kgw)  =   1.059e+00
                       Mass of water (kg)  =   1.000e+00
                 Total alkalinity (eq/kg)  =   4.217e-03
                       Total CO2 (mol/kg)  =   2.434e-05
                         Temperature (°C)  =  25.00
                           Pressure (atm)  =  0.00
                  Electrical balance (eq)  =   1.433e-03
 Percent error, 100*(Cat-|An|)/(Cat+|An|)  =   0.07
                               Iterations  =  53
                                  Total H  = 1.110126e+02
                                  Total O  = 5.550629e+01

----------------------------Distribution of species----------------------------

                                               Log       Log       Log    mole V
   Species          Molality    Activity  Molality  Activity     Gamma   cm³/mol

   H+              1.555e-06   1.153e-06    -5.808    -5.938    -0.130      0.00
   OH-             1.456e-08   8.372e-09    -7.837    -8.077    -0.240     (0)  
   H2O             5.551e+01   9.642e-01     1.744    -0.016     0.000     18.07
Acetate       4.380e-03
   Acetate-        4.206e-03   3.367e-03    -2.376    -2.473    -0.097     (0)  
   HAcetate        1.738e-04   2.219e-04    -3.760    -3.654     0.106     (0)  
Amm           1.000e-06
   AmmH4+          9.998e-07   5.193e-07    -6.000    -6.285    -0.284     (0)  
   AmmH3           2.011e-10   2.567e-10    -9.697    -9.591     0.106     (0)  
C(4)          2.434e-05
   CO2             1.262e-05   1.610e-05    -4.899    -4.793     0.106     (0)  
   HCO3-           9.185e-06   5.988e-06    -5.037    -5.223    -0.186     (0)  
   NaHCO3          1.979e-06   2.525e-06    -5.704    -5.598     0.106     (0)  
   FerrousHCO3+    5.012e-07   4.012e-07    -6.300    -6.397    -0.097     (0)  
   CaHCO3+         4.908e-08   3.200e-08    -7.309    -7.495    -0.186     (0)  
   NaCO3-          4.249e-09   3.401e-09    -8.372    -8.468    -0.097     (0)  
   FerrousCO3      3.067e-09   3.915e-09    -8.513    -8.407     0.106     (0)  
   CO3-2           1.348e-09   2.436e-10    -8.870    -9.613    -0.743     (0)  
   CaCO3           1.343e-10   1.714e-10    -9.872    -9.766     0.106     (0)  
Ca            1.690e-03
   Ca+2            1.689e-03   4.188e-04    -2.772    -3.378    -0.606     (0)  
   CaHCO3+         4.908e-08   3.200e-08    -7.309    -7.495    -0.186     (0)  
   CaCO3           1.343e-10   1.714e-10    -9.872    -9.766     0.106     (0)  
   CaOH+           7.262e-11   5.813e-11   -10.139   -10.236    -0.097     (0)  
Cl            1.050e+00
   Cl-             1.049e+00   6.256e-01     0.021    -0.204    -0.225     (0)  
   FerrousCl+      7.228e-04   5.786e-04    -3.141    -3.238    -0.097     (0)  
   FerricCl2+      8.773e-12   7.023e-12   -11.057   -11.153    -0.097     (0)  
   FerricCl+2      6.120e-12   2.513e-12   -11.213   -11.600    -0.387     (0)  
   FerricCl3       3.443e-13   4.394e-13   -12.463   -12.357     0.106     (0)  
Ferric        2.670e-07
   Ferric(OH)2+    2.485e-07   1.989e-07    -6.605    -6.701    -0.097     (0)  
   Ferric(OH)3     1.679e-08   2.143e-08    -7.775    -7.669     0.106     (0)  
   FerricOH+2      1.749e-09   7.183e-10    -8.757    -9.144    -0.387     (0)  
   Ferric(OH)4-    2.042e-11   1.634e-11   -10.690   -10.787    -0.097     (0)  
   FerricCl2+      8.773e-12   7.023e-12   -11.057   -11.153    -0.097     (0)  
   FerricCl+2      6.120e-12   2.513e-12   -11.213   -11.600    -0.387     (0)  
   Ferric+3        1.961e-12   1.330e-13   -11.707   -12.876    -1.169     (0)  
   FerricCl3       3.443e-13   4.394e-13   -12.463   -12.357     0.106     (0)  
   Ferric2(OH)2+4   4.882e-16   1.389e-17   -15.311   -16.857    -1.546     (0)  
   Ferric3(OH)4+5   1.503e-19   5.770e-22   -18.823   -21.239    -2.416     (0)  
Ferrous       4.030e-03
   Ferrous+2       3.307e-03   6.700e-04    -2.481    -3.174    -0.693     (0)  
   FerrousCl+      7.228e-04   5.786e-04    -3.141    -3.238    -0.097     (0)  
   FerrousHCO3+    5.012e-07   4.012e-07    -6.300    -6.397    -0.097     (0)  
   FerrousOH+      2.213e-07   1.772e-07    -6.655    -6.752    -0.097     (0)  
   FerrousCO3      3.067e-09   3.915e-09    -8.513    -8.407     0.106     (0)  
Glucose       5.400e-04
   Glucose         5.400e-04   6.891e-04    -3.268    -3.162     0.106     (0)  
H(0)          0.000e+00
   H2              0.000e+00   0.000e+00   -43.573   -43.467     0.106     (0)  
Methane       5.027e-15
   MethaneH4       5.027e-15   6.415e-15   -14.299   -14.193     0.106     (0)  
Na            1.044e+00
   Na+             1.044e+00   7.499e-01     0.019    -0.125    -0.144     (0)  
   NaHCO3          1.979e-06   2.525e-06    -5.704    -5.598     0.106     (0)  
   NaCO3-          4.249e-09   3.401e-09    -8.372    -8.468    -0.097     (0)  
   NaOH            3.247e-09   4.144e-09    -8.489    -8.383     0.106     (0)  
O(0)          5.224e-06
   O2              2.612e-06   3.334e-06    -5.583    -5.477     0.106     (0)  

------------------------------Saturation indices-------------------------------

  Phase               SI** log IAP   log K(298 K,   0 atm)

  FeRA           1101.76   -326.62-1428.38  C5H4O2Amm
  FixpH            -5.94     -5.94    0.00  H+
  H2(g)           -40.32    -43.47   -3.15  H2
  H2O(g)           -1.53     -0.02    1.51  H2O
  Halite           -1.91     -0.33    1.58  NaCl
  MeGA           1900.65   1691.40 -209.25  C5H4O2Amm
  redoxAragonite   -4.66    -12.99   -8.34  CaCO3
  redoxCalcite     -4.51    -12.99   -8.48  CaCO3
  redoxCH4(g)     -11.33    -14.19   -2.86  MethaneH4
  redoxCO2(g)      -3.33     -4.79   -1.47  CO2
  redoxFe(OH)3(a)   0.00      4.89    4.89  Ferric(OH)3
  redoxGoethite     5.91      4.91   -1.00  FerricOOH
  redoxHematite    13.84      9.83   -4.01  Ferric2O3
  redoxNH3(g)     -11.36     -9.59    1.77  AmmH3
  redoxSiderite    -1.90    -12.79  -10.89  FerrousCO3

**For a gas, SI = log10(fugacity). Fugacity = pressure * phi / 1 atm.
  For ideal gases, phi = 1.

------------------
End of simulation.
------------------

------------------------------------
Reading input data for simulation 4.
------------------------------------

---------------------------------
End of Run after 1.29782 Seconds.
---------------------------------

