   Input file: MENDp_150b.phrq
  Output file: MENDp_150b.phrq.out
Database file: ../../database/redox.dat

------------------
Reading data base.
------------------

	SOLUTION_MASTER_SPECIES
	SOLUTION_SPECIES
	PHASES
	EXCHANGE_MASTER_SPECIES
	EXCHANGE_SPECIES
	SURFACE_MASTER_SPECIES
	SURFACE_SPECIES
	RATES
	END
------------------------------------
Reading input data for simulation 1.
------------------------------------

	DATABASE ../../database/redox.dat
	TITLE Carbon decomposition in MEND
	CALCULATE_VALUES
	 fpH
	 start
	 10 pH = -la("H+")
	 20 fpH = 10^(-0.2235*pH*pH + 2.7727*pH - 8.6)
	 30 SAVE fpH
	 end
	fsalt
	 start
	 10 logs = la("Cl-")+la("Na+")
	 20 fsalt = 1 / (1.0 + exp(-2.5 * (1.5 - logs)))  #log(umol g-1)
	 40 SAVE fsalt
	 end
	frdx
	 start
	 10 do = tot('Ozero')
	 20 frdx = do/(do+0.00002)
	 40 SAVE frdx
	 end
	SOLUTION 1
	  units       mmol/kgw
	  temperature 	 25
	  pH 	  6.12
	  Acetate 	       4.38
	  Glucose 	       0.54
	  Ferrous 	       4.00
	  C(4)        1.0 redoxCO2(g) -3.4  # in equilibrium with CO2 in atmosphere, 400 pm
	  Ca          1.0
	  Na          1.0   
	  Cl          3.0  charge
	  Ozero       0.25 redoxO2(g) 0.0   #mmol/L atm level
	  Ferric      1e-20 redoxFe(OH)3(a) 0.0
	  Methane     1.0e-10
	  Amm         1.0e-3
	  SAVE SOLUTION 1
	END
-----
TITLE
-----

 Carbon decomposition in MEND

-------------------------------------------
Beginning of initial solution calculations.
-------------------------------------------

Initial solution 1.	

-----------------------------Solution composition------------------------------

	Elements           Molality       Moles

	Acetate           4.380e-03   4.380e-03
	Amm               1.000e-06   1.000e-06
	C(4)              2.480e-05   2.480e-05  Equilibrium with redoxCO2(g)
	Ca                1.000e-03   1.000e-03
	Cl                6.770e-03   6.770e-03  Charge balance
	Ferric            1.650e-07   1.650e-07  Equilibrium with redoxFe(OH)3(a)
	Ferrous           4.000e-03   4.000e-03
	Glucose           5.400e-04   5.400e-04
	Methane           1.000e-13   1.000e-13
	Na                1.000e-03   1.000e-03
	Ozero             2.553e-03   2.553e-03  Equilibrium with redoxO2(g)

----------------------------Description of solution----------------------------

                                       pH  =   6.120    
                                       pe  =   4.000    
      Specific Conductance (µS/cm,  25°C)  = 979
                        Activity of water  =   1.000
                 Ionic strength (mol/kgw)  =   1.595e-02
                       Mass of water (kg)  =   1.000e+00
                 Total alkalinity (eq/kg)  =   4.231e-03
                       Total CO2 (mol/kg)  =   2.480e-05
                         Temperature (°C)  =  25.00
                  Electrical balance (eq)  =  -1.121e-17
 Percent error, 100*(Cat-|An|)/(Cat+|An|)  =  -0.00
                               Iterations  =  12
                                  Total H  = 1.110126e+02
                                  Total O  = 5.550628e+01

----------------------------Distribution of species----------------------------

                                               Log       Log       Log    mole V
   Species          Molality    Activity  Molality  Activity     Gamma   cm³/mol

   H+              8.451e-07   7.586e-07    -6.073    -6.120    -0.047      0.00
   OH-             1.502e-08   1.319e-08    -7.823    -7.880    -0.056     (0)  
   H2O             5.551e+01   9.997e-01     1.744    -0.000     0.000     18.07
Acetate       4.380e-03
   Acetate-        4.219e-03   3.720e-03    -2.375    -2.430    -0.055     (0)  
   HAcetate        1.607e-04   1.612e-04    -3.794    -3.793     0.002     (0)  
Amm           1.000e-06
   AmmH4+          9.993e-07   8.737e-07    -6.000    -6.059    -0.058     (0)  
   AmmH3           6.539e-10   6.564e-10    -9.184    -9.183     0.002     (0)  
C(4)          2.480e-05
   CO2             1.350e-05   1.355e-05    -4.870    -4.868     0.002     (0)  
   HCO3-           8.968e-06   7.944e-06    -5.047    -5.100    -0.053     (0)  
   FerrousHCO3+    2.227e-06   1.963e-06    -5.652    -5.707    -0.055     (0)  
   CaHCO3+         7.042e-08   6.238e-08    -7.152    -7.205    -0.053     (0)  
   FerrousCO3      2.901e-08   2.911e-08    -7.538    -7.536     0.002     (0)  
   NaHCO3          3.930e-09   3.945e-09    -8.406    -8.404     0.002     (0)  
   CO3-2           7.974e-10   4.911e-10    -9.098    -9.309    -0.210     (0)  
   CaCO3           5.060e-10   5.078e-10    -9.296    -9.294     0.002     (0)  
   NaCO3-          9.160e-12   8.075e-12   -11.038   -11.093    -0.055     (0)  
Ca            1.000e-03
   Ca+2            9.999e-04   6.155e-04    -3.000    -3.211    -0.211     (0)  
   CaHCO3+         7.042e-08   6.238e-08    -7.152    -7.205    -0.053     (0)  
   CaCO3           5.060e-10   5.078e-10    -9.296    -9.294     0.002     (0)  
   CaOH+           1.527e-10   1.346e-10    -9.816    -9.871    -0.055     (0)  
Cl            6.770e-03
   Cl-             6.747e-03   5.931e-03    -2.171    -2.227    -0.056     (0)  
   FerrousCl+      2.295e-05   2.023e-05    -4.639    -4.694    -0.055     (0)  
   FerricCl+2      1.008e-14   6.089e-15   -13.996   -14.215    -0.219     (0)  
   FerricCl2+      1.830e-16   1.613e-16   -15.738   -15.792    -0.055     (0)  
   FerricCl3       9.532e-20   9.567e-20   -19.021   -19.019     0.002     (0)  
Ferric        1.650e-07
   Ferric(OH)2+    1.432e-07   1.262e-07    -6.844    -6.899    -0.055     (0)  
   Ferric(OH)3     2.135e-08   2.143e-08    -7.671    -7.669     0.002     (0)  
   FerricOH+2      4.789e-10   2.893e-10    -9.320    -9.539    -0.219     (0)  
   Ferric(OH)4-    2.922e-11   2.575e-11   -10.534   -10.589    -0.055     (0)  
   Ferric+3        8.985e-14   3.400e-14   -13.046   -13.469    -0.422     (0)  
   FerricCl+2      1.008e-14   6.089e-15   -13.996   -14.215    -0.219     (0)  
   FerricCl2+      1.830e-16   1.613e-16   -15.738   -15.792    -0.055     (0)  
   Ferric2(OH)2+4   1.693e-17   2.252e-18   -16.771   -17.647    -0.876     (0)  
   FerricCl3       9.532e-20   9.567e-20   -19.021   -19.019     0.002     (0)  
   Ferric3(OH)4+5   1.388e-21   5.939e-23   -20.858   -22.226    -1.369     (0)  
Ferrous       4.000e-03
   Ferrous+2       3.974e-03   2.471e-03    -2.401    -2.607    -0.206     (0)  
   FerrousCl+      2.295e-05   2.023e-05    -4.639    -4.694    -0.055     (0)  
   FerrousHCO3+    2.227e-06   1.963e-06    -5.652    -5.707    -0.055     (0)  
   FerrousOH+      1.168e-06   1.030e-06    -5.932    -5.987    -0.055     (0)  
   FerrousCO3      2.901e-08   2.911e-08    -7.538    -7.536     0.002     (0)  
Glucose       5.400e-04
   Glucose         5.400e-04   5.420e-04    -3.268    -3.266     0.002     (0)  
H(0)          8.118e-24
   H2              4.059e-24   4.074e-24   -23.392   -23.390     0.002     (0)  
Methane       1.000e-13
   MethaneH4       1.000e-13   1.004e-13   -13.000   -12.998     0.002     (0)  
Na            1.000e-03
   Na+             1.000e-03   8.830e-04    -3.000    -3.054    -0.054     (0)  
   NaHCO3          3.930e-09   3.945e-09    -8.406    -8.404     0.002     (0)  
   NaCO3-          9.160e-12   8.075e-12   -11.038   -11.093    -0.055     (0)  
   NaOH            7.660e-12   7.688e-12   -11.116   -11.114     0.002     (0)  
O(0)          0.000e+00
   O2              0.000e+00   0.000e+00   -45.602   -45.600     0.002     (0)  
Ozero         2.553e-03
   Ozero2          1.277e-03   1.281e-03    -2.894    -2.892     0.002     (0)  

------------------------------Saturation indices-------------------------------

  Phase               SI** log IAP   log K(298 K,   1 atm)

  FeRA            955.78   -472.60-1428.38  C5H4O2Amm
  FixpH            -6.12     -6.12    0.00  H+
  H2(g)           -20.24    -23.39   -3.15  H2
  H2O(g)           -1.51     -0.00    1.51  H2O
  Halite           -6.86     -5.28    1.58  NaCl
  MeGA           1773.35   1564.10 -209.25  C5H4O2Amm
  ORA             486.39      7.96 -478.43  C5H4O2Amm
  ORM             769.57   -109.66 -879.23  C5H4O2Amm
  redoxAragonite   -4.18    -12.52   -8.34  CaCO3
  redoxCalcite     -4.04    -12.52   -8.48  CaCO3
  redoxCH4(g)     -10.14    -13.00   -2.86  MethaneH4
  redoxCO2(g)      -3.40     -4.87   -1.47  CO2
  redoxFe(OH)3(a)  -0.00      4.89    4.89  Ferric(OH)3
  redoxGoethite     5.89      4.89   -1.00  FerricOOH
  redoxHematite    13.79      9.78   -4.01  Ferric2O3
  redoxNH3(g)     -10.95     -9.18    1.77  AmmH3
  redoxO2(g)        0.00     -2.89   -2.89  Ozero2
  redoxSiderite    -1.03    -11.92  -10.89  FerrousCO3

**For a gas, SI = log10(fugacity). Fugacity = pressure * phi / 1 atm.
  For ideal gases, phi = 1.

------------------
End of simulation.
------------------

------------------------------------
Reading input data for simulation 2.
------------------------------------

	GAS_PHASE 1 fixed volume gas phase
	  fixed_volume
	  volume 	   0.5
	  temperature 	 8.0
	  redoxCH4(g) 0.0
	  redoxCO2(g) 0.0
	  redoxH2(g)  0.0
	  redoxO2(g)  1.0
	  redoxNH3(g) 0.0
	  SAVE GAS_PHASE 1
	END
------------------
End of simulation.
------------------

------------------------------------
Reading input data for simulation 3.
------------------------------------

	USE SOLUTION 1
	USE GAS_PHASE 1
	EQUILIBRIUM_PHASES 1
	  redoxFe(OH)3(a) 0.0 5.67059990E-03
	SURFACE 1
	Hfo_w redoxFe(OH)3(a) 0.2 1.068E4
	Hfo_s redoxFe(OH)3(a) 0.005 1.068E4
	  H_a   1.774E-03  3.417E+04      2.498
	  H_b   1.774E-03
	 H_c   1.774E-03
	 H_d  1.774E-03
	  H_e   8.869E-04
	 H_f   8.869E-04
	 H_g  8.869E-04
	 H_h  8.869E-04
	  H_ab  2.948E-04
	 H_ad  2.948E-04
	 H_af  2.948E-04
	 H_ah  2.948E-04
	  H_bc  2.948E-04
	 H_be  2.948E-04
	 H_bg  2.948E-04
	 H_cd  2.948E-04
	  H_cf  2.948E-04
	 H_ch  2.948E-04
	 H_de  2.948E-04
	 H_dg  2.948E-04
	  equilibrate 1
	KINETICS  Decomposition
	cvode
	BA
	   m0   0.56132
	   formula CH2O 0.0   
	   parms 5e-4  0.26  3e-4 2.6  0.75  0.01  0.25   #Vd1, kD1, Vd2, kD2, Ec1, pEP, Ec2
	POM1
	   m0   4.0719
	   formula CH2O 0.0    
	   parms 1.5  50  2e-5  0.5  #vp1, kp1, Ip1, gD-fraction of dead BA to D   KmO2
	POM2
	   m0   1.9665
	   formula CH2O 0.0
	   parms  1.5   5  2e-5   #vp2, kp2, Ip2,  KmO2
	MOM
	   m0   10.075
	   formula CH2O 0.0
	   parms 0.1  250  0.5   #vm, km, fD- fraction of decomposed p1/p2 to D
	DOM1
	   m0   0.1946
	   formula CH2O 0.0  
	   parms  6e-5  0.5  0.5  #Input, gD  fD
	DOM2
	   m0   0.346
	   formula CH2O 0.0  
	   parms  6e-5  0.5  #Input, fD
	QOM1
	   m0   0.053365
	   formula CH2O 0.0   
	   parms 0.006 0.1  0.001   #adsorption constant, Qmax, desorption constant
	QOM2
	   m0   1.1273
	   formula CH2O 0.0  
	   parms 0.006  1.7 0.001   #adsorption constant, Qmax, desorption constant
	EP1
	   m0   2.6232e-4
	   formula CH2O 0.0
	   parms  0.01 5e-4 0.75 1e-3  #pEP, Vd1, Ec1, rEP
	EP2
	   m0   1.2853e-4
	   formula CH2O 0.0
	   parms  0.01 5e-4 0.75 1e-3  #pEP, Vd1, Ec1, rEP
	EM
	   m0   1.9543e-4
	   formula CH2O 0.0
	   parms  0.005 5e-4 0.75 1e-3  #pEP, Vd1, Ec1, rEP
	respiration
	   m0   0.083442
	   formula CH2O 0.0    HCO3 -0.0005  Ozero2  1.1  Cl-  -50   Na+  -50
	   parms  0.75  0.25  #Ec1, Ec2
	Tot
	   m0   18.376
	   formula CH2O 0.0
	   parms  0.75  0.25 2e-5  2e-5  6e-5  6e-5   #Ip1, Ip2, Id1, Id2, Ec1, Ec2
	   steps 720 in 30 steps #hour
	  INCREMENTAL_REACTIONS true
	RATES
	BA
	   start
	     2 f1 = CALC_VALUE("fpH")
	     5 f2 = CALC_VALUE("fsalt")
	     8 f3 = CALC_VALUE("frdx")*1.007
	    10 mDOM1= kin("DOM1")
	    20 mDOM2= kin("DOM2")
	    30 bio = kin("BA")
	    40 flux1=f1*f2*f3*parm(1)*bio*mDOM1/(parm(2)+mDOM1)   #Vd1, kD1
	    50 put(flux1, 1)                                       
	    60 flux2=f1*f2*f3*parm(3)*bio*mDOM2/(parm(4)+mDOM2)   #Vd2, kD2
	    70 put(flux2, 2)                                           
	    80 flux3 = (1-parm(6)*3)*parm(1)*parm(5)*bio*0.2   ##mortality
	    90 put(flux3, 3)                              #biomass decay              
	    100 rate = parm(5)* get(1)+ parm(7)*get(2)-get(3)-(get(11)+get(13)+get(15))
	    110 save -rate * time 
	   end
	POM1
	   start
	     2 f1 = CALC_VALUE("fpH")
	     5 f2 = CALC_VALUE("fsalt")
	     8 f3 = CALC_VALUE("frdx")*1.007
	    10 mPOM1 = kin("POM1")
	    20 ep1 = kin("EP1")
	    30 flux = f1*f2*f3*parm(1) * ep1 * mPOM1 /(parm(2)+ mPOM1) # Vp1, kP1
	    40 put(flux, 4)  #flux FP1
	    50 rate = parm(3)+ (1-parm(4))*get(3)-get(4)     #input, gD
	    100 save -rate * time
	   end
	POM2
	   start
	     2 f1 = CALC_VALUE("fpH")
	     5 f2 = CALC_VALUE("fsalt")
	    10 mPOM2= kin("POM2")
	    20 ep2 = kin("EP2")
	    30 flux = f1*f2*parm(1) * ep2 * mPOM2 /(parm(2)+ mPOM2) # parm(1)=Vp2, parm(2)=Kp2
	    40 put(flux, 5)  #flux FP2
	    50 rate = parm(3)-get(5)   #parm(3)=POM2 input
	    100 save -rate * time
	   end
	MOM
	   start
	     2 f1 = CALC_VALUE("fpH")
	     5 f2 = CALC_VALUE("fsalt")
	     8 f3 = CALC_VALUE("frdx")*1.007
	    10 mMOM = kin("MOM")
	    20 em = kin("EM")
	    30 flux = f1*f2*f3*parm(1) * em * mMOM /(parm(2)+ mMOM) # parm(1)=VM, parm(2)=KM
	    40 put(flux,6)  #flux FM
	    50 rate = (1-parm(3))*(get(4)+get(5))-get(6)   #parm(3)=fD_fraction of decomposed P1/P2 to D
	    100 save -rate*time
	   end
	DOM1
	   start
	    10 rate = parm(1)+parm(2)* get(3)+get(6)+0.5*parm(3)*(get(4)+get(5))-get(1)-(get(7)-get(8))+get(12)+get(14)+get(16)
	    100 save -rate* time
	   end
	DOM2
	   start
	    50 rate = parm(1)+0.5*parm(2)*(get(4)+get(5))-get(2)-(get(9)-get(10)) 
	    100 save -rate* time
	   end
	QOM1
	   start
	    10 mQOM = kin("QOM1")
	    20 D = kin("DOM1")
	    30 flux1 = parm(1) * (1-mQOM/parm(2))* D #parm(1)=adsorption constant, parm(2)=Qmax
	    40 put(flux1,7)  #flux F4
	    50 flux2 = parm(3) * (mQOM/parm(2)) #parm(3)=desorption constant, parm(2)=Qmax
	    60 put(flux2,8)  #flux F5
	    70 rate = get(7)-get(8)
	    100 save -rate * time
	   end
	QOM2
	   start
	    10 mQOM = kin("QOM2")
	    20 D = kin("DOM2")
	    30 flux1 = parm(1) * (1-mQOM/parm(2))* D #parm(1)=adsorption constant, parm(2)=Qmax
	    40 put(flux1,9)  #flux F4
	    50 flux2 = parm(3) * (mQOM/parm(2)) #parm(3)=desorption constant, parm(2)=Qmax
	    60 put(flux2,10)  #flux F5
	    70 rate = get(9)-get(10)
	    100 save -rate * time
	   end
	EP1
	   start
	    10 p1 = kin("POM1")
	    20 p2 = kin ("POM2")
	    30 bio = kin("BA")
	    40 ep1 = kin("EP1")
	    50 flux1 = p1/(p1+p2)*parm(1)*parm(2)*parm(3)*bio *0.2
	    60 put (flux1,11)
	    70 flux2 = parm(4) *ep1
	    80 put (flux2,12)
	    90 rate = get(11)-get(12)
	    100 save -rate * time
	   end
	EP2
	   start
	    10 p1 = kin("POM1")
	    20 p2 = kin ("POM2")
	    30 bio = kin("BA")
	    40 ep2 = kin("EP2")
	    50 flux1 = p2/(p1+p2)*parm(1)*parm(2)*parm(3)*bio*0.2
	    60 put (flux1,13)
	    70 flux2 = parm(4) *ep2
	    80 put (flux2,14)
	    90 rate = get(13)-get(14)
	    100  save -rate * time
	   end
	EM
	   start
	    10 em = kin("EM")
	    20 bio = kin("BA")
	    30 flux1 = parm(1)*parm(2)*parm(3)*bio*0.2
	    40 put (flux1, 15)
	    50 flux2= parm(4)* em
	    60 put (flux2,16)
	    70 rate = get(15)-get(16)
	    100  save -rate * time
	   end
	respiration
	   start
	    10 rate = (1-parm(1))* get(1)+ (1-parm(2))*get(2)
	    20 save -rate * time
	   end
	Tot
	   start
	    10 rate = parm(3)+parm(4)+parm(5)+parm(6)- (1-parm(1))* get(1)- (1-parm(2))*get(2)
	    20 save -rate * time
	   end
	SELECTED_OUTPUT
	  reset false
	  file MENDp_150b.txt
	USER_PUNCH
	  start
	  heading Time P1 P2 M Q1 Q2 D1 D2 B EP1 EP2 EM  IC Tot pH  fpH CO2aq  O2 fsalt frdx
	  10 PUNCH SIM_TIME
	  20 PUNCH kin('POM1') kin('POM2') kin('MOM') kin('QOM1') kin('QOM2') kin('DOM1') kin('DOM2') kin('BA') kin('EP1') kin('EP2') kin('EM') 
	  30 PUNCH kin('respiration') kin("Tot")
	  40 PUNCH -la("H+")
	  50 PUNCH CALC_VALUE("fpH")
	  60 PUNCH tot('C(4)')
	  70 PUNCH tot('Ozero')
	  80 PUNCH CALC_VALUE("fsalt")  CALC_VALUE("frdx")*1.007
	  end
	END
WARNING: Suggest using master species formula in SURFACE 
	 for surface related to equilibrium_phase: H_aH.
WARNING: Suggest using master species formula in SURFACE 
	 for surface related to equilibrium_phase: H_abH2.
WARNING: Suggest using master species formula in SURFACE 
	 for surface related to equilibrium_phase: H_adH2.
WARNING: Suggest using master species formula in SURFACE 
	 for surface related to equilibrium_phase: H_afH2.
WARNING: Suggest using master species formula in SURFACE 
	 for surface related to equilibrium_phase: H_ahH2.
WARNING: Suggest using master species formula in SURFACE 
	 for surface related to equilibrium_phase: H_bH.
WARNING: Suggest using master species formula in SURFACE 
	 for surface related to equilibrium_phase: H_bcH2.
WARNING: Suggest using master species formula in SURFACE 
	 for surface related to equilibrium_phase: H_beH2.
WARNING: Suggest using master species formula in SURFACE 
	 for surface related to equilibrium_phase: H_bgH2.
WARNING: Suggest using master species formula in SURFACE 
	 for surface related to equilibrium_phase: H_cH.
WARNING: Suggest using master species formula in SURFACE 
	 for surface related to equilibrium_phase: H_cdH2.
WARNING: Suggest using master species formula in SURFACE 
	 for surface related to equilibrium_phase: H_cfH2.
WARNING: Suggest using master species formula in SURFACE 
	 for surface related to equilibrium_phase: H_chH2.
WARNING: Suggest using master species formula in SURFACE 
	 for surface related to equilibrium_phase: H_dH.
WARNING: Suggest using master species formula in SURFACE 
	 for surface related to equilibrium_phase: H_deH2.
WARNING: Suggest using master species formula in SURFACE 
	 for surface related to equilibrium_phase: H_dgH2.
WARNING: Suggest using master species formula in SURFACE 
	 for surface related to equilibrium_phase: H_eH.
WARNING: Suggest using master species formula in SURFACE 
	 for surface related to equilibrium_phase: H_fH.
WARNING: Suggest using master species formula in SURFACE 
	 for surface related to equilibrium_phase: H_gH.
WARNING: Suggest using master species formula in SURFACE 
	 for surface related to equilibrium_phase: H_hH.
WARNING: Suggest using master species formula in SURFACE 
	 for surface related to equilibrium_phase: Hfo_sOH.
WARNING: Suggest using master species formula in SURFACE 
	 for surface related to equilibrium_phase: Hfo_wOH.
WARNING: Suggest using master species formula in SURFACE 
	 for surface related to equilibrium_phase: H_aH.
WARNING: Suggest using master species formula in SURFACE 
	 for surface related to equilibrium_phase: H_abH2.
WARNING: Suggest using master species formula in SURFACE 
	 for surface related to equilibrium_phase: H_adH2.
WARNING: Suggest using master species formula in SURFACE 
	 for surface related to equilibrium_phase: H_afH2.
WARNING: Suggest using master species formula in SURFACE 
	 for surface related to equilibrium_phase: H_ahH2.
WARNING: Suggest using master species formula in SURFACE 
	 for surface related to equilibrium_phase: H_bH.
WARNING: Suggest using master species formula in SURFACE 
	 for surface related to equilibrium_phase: H_bcH2.
WARNING: Suggest using master species formula in SURFACE 
	 for surface related to equilibrium_phase: H_beH2.
WARNING: Suggest using master species formula in SURFACE 
	 for surface related to equilibrium_phase: H_bgH2.
WARNING: Suggest using master species formula in SURFACE 
	 for surface related to equilibrium_phase: H_cH.
WARNING: Suggest using master species formula in SURFACE 
	 for surface related to equilibrium_phase: H_cdH2.
WARNING: Suggest using master species formula in SURFACE 
	 for surface related to equilibrium_phase: H_cfH2.
WARNING: Suggest using master species formula in SURFACE 
	 for surface related to equilibrium_phase: H_chH2.
WARNING: Suggest using master species formula in SURFACE 
	 for surface related to equilibrium_phase: H_dH.
WARNING: Suggest using master species formula in SURFACE 
	 for surface related to equilibrium_phase: H_deH2.
WARNING: Suggest using master species formula in SURFACE 
	 for surface related to equilibrium_phase: H_dgH2.
WARNING: Suggest using master species formula in SURFACE 
	 for surface related to equilibrium_phase: H_eH.
WARNING: Suggest using master species formula in SURFACE 
	 for surface related to equilibrium_phase: H_fH.
WARNING: Suggest using master species formula in SURFACE 
	 for surface related to equilibrium_phase: H_gH.
WARNING: Suggest using master species formula in SURFACE 
	 for surface related to equilibrium_phase: H_hH.
WARNING: Suggest using master species formula in SURFACE 
	 for surface related to equilibrium_phase: Hfo_sOH.
WARNING: Suggest using master species formula in SURFACE 
	 for surface related to equilibrium_phase: Hfo_wOH.
------------------------------------------------------
Beginning of initial surface-composition calculations.
------------------------------------------------------

Surface 1.	

Diffuse Double Layer Surface-Complexation Model

H             
	 -9.777e-03  Surface charge, eq
	 -1.105e-02  sigma, C/m²
	 -3.545e-02  psi, V
	  1.380e+00  -F*psi/RT
	  3.974e+00  exp(-F*psi/RT)
	  3.417e+04  specific area, m²/g
	  8.536e+04  m² for   2.498e+00 g


H_a           
	  1.774e-03  moles
	                                   Mole                     Log
	Species               Moles    Fraction    Molality    Molality

	H_a-              1.773e-03       1.000   1.773e-03      -2.751
	H_aCa+            4.232e-07       0.000   4.232e-07      -6.373
	H_aH              2.080e-07       0.000   2.080e-07      -6.682

H_ab          
	  2.948e-04  moles
	                                   Mole                     Log
	Species               Moles    Fraction    Molality    Molality

	H_ab-2            2.943e-04       0.998   2.943e-04      -3.531
	H_abH-            4.447e-07       0.002   4.447e-07      -6.352
	H_abCa            2.221e-08       0.000   2.221e-08      -7.653
	H_abH2            5.216e-11       0.000   5.216e-11     -10.283

H_ad          
	  2.948e-04  moles
	                                   Mole                     Log
	Species               Moles    Fraction    Molality    Molality

	H_ad-2            2.322e-04       0.788   2.322e-04      -3.634
	H_adH-            5.959e-05       0.202   5.959e-05      -4.225
	H_adCa            2.976e-06       0.010   2.976e-06      -5.526
	H_adH2            6.989e-09       0.000   6.989e-09      -8.156

H_af          
	  2.948e-04  moles
	                                   Mole                     Log
	Species               Moles    Fraction    Molality    Molality

	H_afH-            2.933e-04       0.995   2.933e-04      -3.533
	H_afCa            1.305e-06       0.004   1.305e-06      -5.884
	H_af-2            1.854e-07       0.001   1.854e-07      -6.732
	H_afH2            3.440e-08       0.000   3.440e-08      -7.463

H_ah          
	  2.948e-04  moles
	                                   Mole                     Log
	Species               Moles    Fraction    Molality    Molality

	H_ahH-            2.948e-04       1.000   2.948e-04      -3.531
	H_ahH2            3.457e-08       0.000   3.457e-08      -7.461
	H_ahCa            2.333e-09       0.000   2.333e-09      -8.632
	H_ah-2            3.892e-11       0.000   3.892e-11     -10.410

H_b           
	  1.774e-03  moles
	                                   Mole                     Log
	Species               Moles    Fraction    Molality    Molality

	H_b-              1.766e-03       0.995   1.766e-03      -2.753
	H_bCa+            5.428e-06       0.003   5.428e-06      -5.265
	H_bH              2.668e-06       0.002   2.668e-06      -5.574

H_bc          
	  2.948e-04  moles
	                                   Mole                     Log
	Species               Moles    Fraction    Molality    Molality

	H_bc-2            2.854e-04       0.968   2.854e-04      -3.544
	H_bcH-            5.686e-06       0.019   5.686e-06      -5.245
	H_bcCa            3.658e-06       0.012   3.658e-06      -5.437
	H_bcH2            8.591e-09       0.000   8.591e-09      -8.066

H_be          
	  2.948e-04  moles
	                                   Mole                     Log
	Species               Moles    Fraction    Molality    Molality

	H_beH-            2.820e-04       0.957   2.820e-04      -3.550
	H_be-2            1.233e-05       0.042   1.233e-05      -4.909
	H_beH2            4.261e-07       0.001   4.261e-07      -6.370
	H_beCa            2.876e-08       0.000   2.876e-08      -7.541

H_bg          
	  2.948e-04  moles
	                                   Mole                     Log
	Species               Moles    Fraction    Molality    Molality

	H_bgH-            2.943e-04       0.998   2.943e-04      -3.531
	H_bgH2            4.447e-07       0.002   4.447e-07      -6.352
	H_bgCa            3.001e-08       0.000   3.001e-08      -7.523
	H_bg-2            2.689e-09       0.000   2.689e-09      -8.570

H_c           
	  1.774e-03  moles
	                                   Mole                     Log
	Species               Moles    Fraction    Molality    Molality

	H_c-              1.673e-03       0.943   1.673e-03      -2.777
	H_cCa+            6.779e-05       0.038   6.779e-05      -4.169
	H_cH              3.332e-05       0.019   3.332e-05      -4.477

H_cd          
	  2.948e-04  moles
	                                   Mole                     Log
	Species               Moles    Fraction    Molality    Molality

	H_cdCa            1.866e-04       0.633   1.866e-04      -3.729
	H_cd-2            8.575e-05       0.291   8.575e-05      -4.067
	H_cdH-            2.200e-05       0.075   2.200e-05      -4.658
	H_cdH2            4.382e-07       0.001   4.382e-07      -6.358

H_cf          
	  2.948e-04  moles
	                                   Mole                     Log
	Species               Moles    Fraction    Molality    Molality

	H_cfH-            2.885e-04       0.979   2.885e-04      -3.540
	H_cfH2            5.746e-06       0.019   5.746e-06      -5.241
	H_cfCa            3.878e-07       0.001   3.878e-07      -6.411
	H_cf-2            1.823e-07       0.001   1.823e-07      -6.739

H_ch          
	  2.948e-04  moles
	                                   Mole                     Log
	Species               Moles    Fraction    Molality    Molality

	H_chH-            2.887e-04       0.979   2.887e-04      -3.540
	H_chH2            5.750e-06       0.020   5.750e-06      -5.240
	H_chCa            3.880e-07       0.001   3.880e-07      -6.411
	H_ch-2            3.812e-11       0.000   3.812e-11     -10.419

H_d           
	  1.774e-03  moles
	                                   Mole                     Log
	Species               Moles    Fraction    Molality    Molality

	H_d-              9.974e-04       0.562   9.974e-04      -3.001
	H_dCa+            5.207e-04       0.294   5.207e-04      -3.283
	H_dH              2.559e-04       0.144   2.559e-04      -3.592

H_de          
	  2.948e-04  moles
	                                   Mole                     Log
	Species               Moles    Fraction    Molality    Molality

	H_deH-            2.237e-04       0.759   2.237e-04      -3.650
	H_deH2            5.741e-05       0.195   5.741e-05      -4.241
	H_de-2            9.783e-06       0.033   9.783e-06      -5.010
	H_deCa            3.874e-06       0.013   3.874e-06      -5.412

H_dg          
	  2.948e-04  moles
	                                   Mole                     Log
	Species               Moles    Fraction    Molality    Molality

	H_dgH-            2.314e-04       0.785   2.314e-04      -3.636
	H_dgH2            5.938e-05       0.201   5.938e-05      -4.226
	H_dgCa            4.007e-06       0.014   4.007e-06      -5.397
	H_dg-2            2.114e-09       0.000   2.114e-09      -8.675

H_e           
	  8.869e-04  moles
	                                   Mole                     Log
	Species               Moles    Fraction    Molality    Molality

	H_eH              8.495e-04       0.958   8.495e-04      -3.071
	H_e-              3.715e-05       0.042   3.715e-05      -4.430
	H_eCa+            2.803e-07       0.000   2.803e-07      -6.552

H_f           
	  8.869e-04  moles
	                                   Mole                     Log
	Species               Moles    Fraction    Molality    Molality

	H_fH              8.860e-04       0.999   8.860e-04      -3.053
	H_f-              5.600e-07       0.001   5.600e-07      -6.252
	H_fCa+            2.924e-07       0.000   2.924e-07      -6.534

H_g           
	  8.869e-04  moles
	                                   Mole                     Log
	Species               Moles    Fraction    Molality    Molality

	H_gH              8.866e-04       1.000   8.866e-04      -3.052
	H_gCa+            2.925e-07       0.000   2.925e-07      -6.534
	H_g-              8.100e-09       0.000   8.100e-09      -8.092

H_h           
	  8.869e-04  moles
	                                   Mole                     Log
	Species               Moles    Fraction    Molality    Molality

	H_hH              8.866e-04       1.000   8.866e-04      -3.052
	H_hCa+            2.925e-07       0.000   2.925e-07      -6.534
	H_h-              1.171e-10       0.000   1.171e-10      -9.932

Hfo           
	  4.586e-05  Surface charge, eq
	  7.307e-02  sigma, C/m²
	  1.181e-01  psi, V
	 -4.598e+00  -F*psi/RT
	  1.007e-02  exp(-F*psi/RT)
	  1.068e+04  specific area, m²/mol redoxFe(OH)3(a)
	  6.056e+01  m² for   5.671e-03 moles of redoxFe(OH)3(a)


Hfo_s         
	  2.835e-05  moles	[0.005 mol/(mol redoxFe(OH)3(a))]
	                                   Mole                     Log
	Species               Moles    Fraction    Molality    Molality

	Hfo_sOFerrous+    2.092e-05       0.738   2.092e-05      -4.679
	Hfo_sOH           5.681e-06       0.200   5.681e-06      -5.246
	Hfo_sO-           8.735e-07       0.031   8.735e-07      -6.059
	Hfo_sOH2+         8.465e-07       0.030   8.465e-07      -6.072
	Hfo_sOHCa+2       3.312e-08       0.001   3.312e-08      -7.480

Hfo_w         
	  1.134e-03  moles	[0.2 mol/(mol redoxFe(OH)3(a))]
	                                   Mole                     Log
	Species               Moles    Fraction    Molality    Molality

	Hfo_wOH           8.406e-04       0.741   8.406e-04      -3.075
	Hfo_wO-           1.292e-04       0.114   1.292e-04      -3.889
	Hfo_wOH2+         1.252e-04       0.110   1.252e-04      -3.902
	Hfo_wOFerrous+    2.888e-05       0.025   2.888e-05      -4.539
	Hfo_wOFerrousOH   1.017e-05       0.009   1.017e-05      -4.993
	Hfo_wOCa+         9.705e-09       0.000   9.705e-09      -8.013

-----------------------------------------
Beginning of batch-reaction calculations.
-----------------------------------------

Reaction step 1.

WARNING: Element Hzero is contained in gas redoxH2(g) (which has 0.0 mass),
but is not in solution or other phases.
WARNING: Element Hzero is contained in gas redoxH2(g) (which has 0.0 mass),
but is not in solution or other phases.
WARNING: Element Hzero is contained in gas redoxH2(g) (which has 0.0 mass),
but is not in solution or other phases.
WARNING: Element Hzero is contained in gas redoxH2(g) (which has 0.0 mass),
but is not in solution or other phases.
WARNING: Element Hzero is contained in gas redoxH2(g) (which has 0.0 mass),
but is not in solution or other phases.
WARNING: Element Hzero is contained in gas redoxH2(g) (which has 0.0 mass),
but is not in solution or other phases.
WARNING: Element Hzero is contained in gas redoxH2(g) (which has 0.0 mass),
but is not in solution or other phases.
WARNING: Element Hzero is contained in gas redoxH2(g) (which has 0.0 mass),
but is not in solution or other phases.
WARNING: Element Hzero is contained in gas redoxH2(g) (which has 0.0 mass),
but is not in solution or other phases.
WARNING: Element Hzero is contained in gas redoxH2(g) (which has 0.0 mass),
but is not in solution or other phases.
WARNING: Element Hzero is contained in gas redoxH2(g) (which has 0.0 mass),
but is not in solution or other phases.
WARNING: Element Hzero is contained in gas redoxH2(g) (which has 0.0 mass),
but is not in solution or other phases.
WARNING: Element Hzero is contained in gas redoxH2(g) (which has 0.0 mass),
but is not in solution or other phases.
WARNING: Element Hzero is contained in gas redoxH2(g) (which has 0.0 mass),
but is not in solution or other phases.
WARNING: Element Hzero is contained in gas redoxH2(g) (which has 0.0 mass),
but is not in solution or other phases.
WARNING: Element Hzero is contained in gas redoxH2(g) (which has 0.0 mass),
but is not in solution or other phases.
WARNING: Element Hzero is contained in gas redoxH2(g) (which has 0.0 mass),
but is not in solution or other phases.
WARNING: Element Hzero is contained in gas redoxH2(g) (which has 0.0 mass),
but is not in solution or other phases.
WARNING: Element Hzero is contained in gas redoxH2(g) (which has 0.0 mass),
but is not in solution or other phases.
WARNING: Element Hzero is contained in gas redoxH2(g) (which has 0.0 mass),
but is not in solution or other phases.
WARNING: Element Hzero is contained in gas redoxH2(g) (which has 0.0 mass),
but is not in solution or other phases.
WARNING: Element Hzero is contained in gas redoxH2(g) (which has 0.0 mass),
but is not in solution or other phases.
WARNING: Element Hzero is contained in gas redoxH2(g) (which has 0.0 mass),
but is not in solution or other phases.
WARNING: Element Hzero is contained in gas redoxH2(g) (which has 0.0 mass),
but is not in solution or other phases.
WARNING: Element Hzero is contained in gas redoxH2(g) (which has 0.0 mass),
but is not in solution or other phases.
WARNING: Element Hzero is contained in gas redoxH2(g) (which has 0.0 mass),
but is not in solution or other phases.
WARNING: Element Hzero is contained in gas redoxH2(g) (which has 0.0 mass),
but is not in solution or other phases.
WARNING: Element Hzero is contained in gas redoxH2(g) (which has 0.0 mass),
but is not in solution or other phases.
WARNING: Element Hzero is contained in gas redoxH2(g) (which has 0.0 mass),
but is not in solution or other phases.
WARNING: Element Hzero is contained in gas redoxH2(g) (which has 0.0 mass),
but is not in solution or other phases.
WARNING: Element Hzero is contained in gas redoxH2(g) (which has 0.0 mass),
but is not in solution or other phases.
WARNING: Element Hzero is contained in gas redoxH2(g) (which has 0.0 mass),
but is not in solution or other phases.
WARNING: Element Hzero is contained in gas redoxH2(g) (which has 0.0 mass),
but is not in solution or other phases.
WARNING: Element Hzero is contained in gas redoxH2(g) (which has 0.0 mass),
but is not in solution or other phases.
WARNING: Element Hzero is contained in gas redoxH2(g) (which has 0.0 mass),
but is not in solution or other phases.
WARNING: Element Hzero is contained in gas redoxH2(g) (which has 0.0 mass),
but is not in solution or other phases.
WARNING: Element Hzero is contained in gas redoxH2(g) (which has 0.0 mass),
but is not in solution or other phases.
WARNING: Element Hzero is contained in gas redoxH2(g) (which has 0.0 mass),
but is not in solution or other phases.
WARNING: Element Hzero is contained in gas redoxH2(g) (which has 0.0 mass),
but is not in solution or other phases.
WARNING: Element Hzero is contained in gas redoxH2(g) (which has 0.0 mass),
but is not in solution or other phases.
WARNING: Element Hzero is contained in gas redoxH2(g) (which has 0.0 mass),
but is not in solution or other phases.
WARNING: Element Hzero is contained in gas redoxH2(g) (which has 0.0 mass),
but is not in solution or other phases.
WARNING: Element Hzero is contained in gas redoxH2(g) (which has 0.0 mass),
but is not in solution or other phases.
WARNING: Element Hzero is contained in gas redoxH2(g) (which has 0.0 mass),
but is not in solution or other phases.
WARNING: Element Hzero is contained in gas redoxH2(g) (which has 0.0 mass),
but is not in solution or other phases.
WARNING: Element Hzero is contained in gas redoxH2(g) (which has 0.0 mass),
but is not in solution or other phases.
WARNING: Element Hzero is contained in gas redoxH2(g) (which has 0.0 mass),
but is not in solution or other phases.
WARNING: Element Hzero is contained in gas redoxH2(g) (which has 0.0 mass),
but is not in solution or other phases.
WARNING: Element Hzero is contained in gas redoxH2(g) (which has 0.0 mass),
but is not in solution or other phases.
WARNING: Element Hzero is contained in gas redoxH2(g) (which has 0.0 mass),
but is not in solution or other phases.
WARNING: Element Hzero is contained in gas redoxH2(g) (which has 0.0 mass),
but is not in solution or other phases.
WARNING: Element Hzero is contained in gas redoxH2(g) (which has 0.0 mass),
but is not in solution or other phases.
WARNING: Element Hzero is contained in gas redoxH2(g) (which has 0.0 mass),
but is not in solution or other phases.
WARNING: Element Hzero is contained in gas redoxH2(g) (which has 0.0 mass),
but is not in solution or other phases.
WARNING: Element Hzero is contained in gas redoxH2(g) (which has 0.0 mass),
but is not in solution or other phases.
WARNING: Element Hzero is contained in gas redoxH2(g) (which has 0.0 mass),
but is not in solution or other phases.
Using solution 1.	
Using surface 1.	
Using pure phase assemblage 1.	
Using gas phase 1.	fixed volume gas phase
Using kinetics 1.	Decomposition

Kinetics 1.	Decomposition

	Time step: 24 seconds  (Incremented time: 24 seconds)

	Rate name       Delta Moles Total Moles   Reactant        Coefficient

	BA                1.257e-03   5.626e-01   CH2O                      0
	POM1              2.678e-04   4.072e+00   CH2O                      0
	POM2             -8.112e-04   1.966e+00   CH2O                      0
	MOM               9.791e-04   1.008e+01   CH2O                      0
	DOM1             -5.730e-04   1.940e-01   CH2O                      0
	DOM2              6.032e-04   3.466e-01   CH2O                      0
	QOM1              1.863e-04   5.355e-02   CH2O                      0
	QOM2              8.658e-04   1.128e+00   CH2O                      0
	EP1               5.196e-07   2.628e-04   CH2O                      0
	EP2               2.064e-07   1.287e-04   CH2O                      0
	EM                3.629e-07   1.958e-04   CH2O                      0
	respiration       1.064e-03   8.451e-02   CH2O                      0
	                                          Cl-                     -50
	                                          HCO3                -0.0005
	                                          Na+                     -50
	                                          Ozero2                  1.1
	Tot               2.776e-03   1.838e+01   CH2O                      0

-----------------------------------Gas phase-----------------------------------

Total pressure:  1.00      atmospheres 
    Gas volume:   5.00e-01 liters
  Molar volume:   2.44e+01 liters/mole

                                                        Moles in gas
                                            ----------------------------------
Component                log P           P     Initial       Final       Delta

redoxCH4(g)             -11.34   4.588e-12   0.000e+00   9.377e-14   9.377e-14
redoxCO2(g)              -3.49   3.252e-04   0.000e+00   6.645e-06   6.645e-06
redoxH2(g)              -99.99   0.000e+00   0.000e+00   0.000e+00   0.000e+00
redoxNH3(g)             -11.10   8.006e-12   0.000e+00   1.636e-13   1.636e-13
redoxO2(g)                0.00   1.004e+00   2.167e-02   2.051e-02  -1.159e-03

-------------------------------Phase assemblage--------------------------------

                                                      Moles in assemblage
Phase               SI  log IAP  log K(T, P)   Initial       Final       Delta

redoxFe(OH)3(a)    0.00     4.89      4.89    5.671e-03   5.671e-03  -5.179e-08

------------------------------Surface composition------------------------------

Diffuse Double Layer Surface-Complexation Model

H             
	 -1.080e-02  Surface charge, eq
	 -1.220e-02  sigma, C/m²
	 -1.973e-02  psi, V
	  7.681e-01  -F*psi/RT
	  2.156e+00  exp(-F*psi/RT)
	  3.417e+04  specific area, m²/g
	  8.536e+04  m² for   2.498e+00 g


H_a           
	  1.774e-03  moles
	                                   Mole                     Log
	Species               Moles    Fraction    Molality    Molality

	H_a-              1.774e-03       1.000   1.774e-03      -2.751
	H_aH              1.393e-07       0.000   1.393e-07      -6.856
	H_aCa+            1.271e-07       0.000   1.271e-07      -6.896

H_ab          
	  2.948e-04  moles
	                                   Mole                     Log
	Species               Moles    Fraction    Molality    Molality

	H_ab-2            2.945e-04       0.999   2.945e-04      -3.531
	H_abH-            2.979e-07       0.001   2.979e-07      -6.526
	H_abCa            6.673e-09       0.000   6.673e-09      -8.176
	H_abH2            2.339e-11       0.000   2.339e-11     -10.631

H_ad          
	  2.948e-04  moles
	                                   Mole                     Log
	Species               Moles    Fraction    Molality    Molality

	H_ad-2            2.508e-04       0.851   2.508e-04      -3.601
	H_adH-            4.308e-05       0.146   4.308e-05      -4.366
	H_adCa            9.649e-07       0.003   9.649e-07      -6.016
	H_adH2            3.382e-09       0.000   3.382e-09      -8.471

H_af          
	  2.948e-04  moles
	                                   Mole                     Log
	Species               Moles    Fraction    Molality    Molality

	H_afH-            2.939e-04       0.997   2.939e-04      -3.532
	H_afCa            5.868e-07       0.002   5.868e-07      -6.232
	H_af-2            2.775e-07       0.001   2.775e-07      -6.557
	H_afH2            2.308e-08       0.000   2.308e-08      -7.637

H_ah          
	  2.948e-04  moles
	                                   Mole                     Log
	Species               Moles    Fraction    Molality    Molality

	H_ahH-            2.948e-04       1.000   2.948e-04      -3.531
	H_ahH2            2.315e-08       0.000   2.315e-08      -7.636
	H_ahCa            1.046e-09       0.000   1.046e-09      -8.980
	H_ah-2            5.814e-11       0.000   5.814e-11     -10.235

H_b           
	  1.774e-03  moles
	                                   Mole                     Log
	Species               Moles    Fraction    Molality    Molality

	H_b-              1.771e-03       0.998   1.771e-03      -2.752
	H_bH              1.791e-06       0.001   1.791e-06      -5.747
	H_bCa+            1.634e-06       0.001   1.634e-06      -5.787

H_bc          
	  2.948e-04  moles
	                                   Mole                     Log
	Species               Moles    Fraction    Molality    Molality

	H_bc-2            2.898e-04       0.983   2.898e-04      -3.538
	H_bcH-            3.865e-06       0.013   3.865e-06      -5.413
	H_bcCa            1.115e-06       0.004   1.115e-06      -5.953
	H_bcH2            3.909e-09       0.000   3.909e-09      -8.408

H_be          
	  2.948e-04  moles
	                                   Mole                     Log
	Species               Moles    Fraction    Molality    Molality

	H_beH-            2.765e-04       0.938   2.765e-04      -3.558
	H_be-2            1.806e-05       0.061   1.806e-05      -4.743
	H_beH2            2.796e-07       0.001   2.796e-07      -6.553
	H_beCa            1.264e-08       0.000   1.264e-08      -7.898

H_bg          
	  2.948e-04  moles
	                                   Mole                     Log
	Species               Moles    Fraction    Molality    Molality

	H_bgH-            2.945e-04       0.999   2.945e-04      -3.531
	H_bgH2            2.979e-07       0.001   2.979e-07      -6.526
	H_bgCa            1.347e-08       0.000   1.347e-08      -7.871
	H_bg-2            4.019e-09       0.000   4.019e-09      -8.396

H_c           
	  1.774e-03  moles
	                                   Mole                     Log
	Species               Moles    Fraction    Molality    Molality

	H_c-              1.730e-03       0.975   1.730e-03      -2.762
	H_cH              2.307e-05       0.013   2.307e-05      -4.637
	H_cCa+            2.105e-05       0.012   2.105e-05      -4.677

H_cd          
	  2.948e-04  moles
	                                   Mole                     Log
	Species               Moles    Fraction    Molality    Molality

	H_cd-2            1.613e-04       0.547   1.613e-04      -3.792
	H_cdCa            1.054e-04       0.358   1.054e-04      -3.977
	H_cdH-            2.771e-05       0.094   2.771e-05      -4.557
	H_cdH2            3.695e-07       0.001   3.695e-07      -6.432

H_cf          
	  2.948e-04  moles
	                                   Mole                     Log
	Species               Moles    Fraction    Molality    Molality

	H_cfH-            2.905e-04       0.985   2.905e-04      -3.537
	H_cfH2            3.873e-06       0.013   3.873e-06      -5.412
	H_cf-2            2.742e-07       0.001   2.742e-07      -6.562
	H_cfCa            1.751e-07       0.001   1.751e-07      -6.757

H_ch          
	  2.948e-04  moles
	                                   Mole                     Log
	Species               Moles    Fraction    Molality    Molality

	H_chH-            2.907e-04       0.986   2.907e-04      -3.536
	H_chH2            3.877e-06       0.013   3.877e-06      -5.412
	H_chCa            1.753e-07       0.001   1.753e-07      -6.756
	H_ch-2            5.735e-11       0.000   5.735e-11     -10.241

H_d           
	  1.774e-03  moles
	                                   Mole                     Log
	Species               Moles    Fraction    Molality    Molality

	H_d-              1.335e-03       0.753   1.335e-03      -2.874
	H_dH              2.294e-04       0.129   2.294e-04      -3.639
	H_dCa+            2.093e-04       0.118   2.093e-04      -3.679

H_de          
	  2.948e-04  moles
	                                   Mole                     Log
	Species               Moles    Fraction    Molality    Molality

	H_deH-            2.368e-04       0.803   2.368e-04      -3.626
	H_deH2            4.068e-05       0.138   4.068e-05      -4.391
	H_de-2            1.547e-05       0.052   1.547e-05      -4.811
	H_deCa            1.839e-06       0.006   1.839e-06      -5.735

H_dg          
	  2.948e-04  moles
	                                   Mole                     Log
	Species               Moles    Fraction    Molality    Molality

	H_dgH-            2.499e-04       0.848   2.499e-04      -3.602
	H_dgH2            4.293e-05       0.146   4.293e-05      -4.367
	H_dgCa            1.941e-06       0.007   1.941e-06      -5.712
	H_dg-2            3.411e-09       0.000   3.411e-09      -8.467

H_e           
	  8.869e-04  moles
	                                   Mole                     Log
	Species               Moles    Fraction    Molality    Molality

	H_eH              8.324e-04       0.939   8.324e-04      -3.080
	H_e-              5.437e-05       0.061   5.437e-05      -4.265
	H_eCa+            1.232e-07       0.000   1.232e-07      -6.909

H_f           
	  8.869e-04  moles
	                                   Mole                     Log
	Species               Moles    Fraction    Molality    Molality

	H_fH              8.859e-04       0.999   8.859e-04      -3.053
	H_f-              8.364e-07       0.001   8.364e-07      -6.078
	H_fCa+            1.311e-07       0.000   1.311e-07      -6.882

H_g           
	  8.869e-04  moles
	                                   Mole                     Log
	Species               Moles    Fraction    Molality    Molality

	H_gH              8.868e-04       1.000   8.868e-04      -3.052
	H_gCa+            1.312e-07       0.000   1.312e-07      -6.882
	H_g-              1.210e-08       0.000   1.210e-08      -7.917

H_h           
	  8.869e-04  moles
	                                   Mole                     Log
	Species               Moles    Fraction    Molality    Molality

	H_hH              8.868e-04       1.000   8.868e-04      -3.052
	H_hCa+            1.312e-07       0.000   1.312e-07      -6.882
	H_h-              1.749e-10       0.000   1.749e-10      -9.757

Hfo           
	  9.435e-05  Surface charge, eq
	  1.503e-01  sigma, C/m²
	  1.173e-01  psi, V
	 -4.564e+00  -F*psi/RT
	  1.042e-02  exp(-F*psi/RT)
	  1.068e+04  specific area, m²/mol redoxFe(OH)3(a)
	  6.056e+01  m² for   5.671e-03 moles of redoxFe(OH)3(a)


Hfo_s         
	  2.835e-05  moles	[0.005 mol/(mol redoxFe(OH)3(a))]
	                                   Mole                     Log
	Species               Moles    Fraction    Molality    Molality

	Hfo_sOFerrous+    1.755e-05       0.619   1.755e-05      -4.756
	Hfo_sOH           8.200e-06       0.289   8.200e-06      -5.086
	Hfo_sOH2+         1.559e-06       0.055   1.559e-06      -5.807
	Hfo_sO-           9.878e-07       0.035   9.878e-07      -6.005
	Hfo_sOHCa+2       5.216e-08       0.002   5.216e-08      -7.283

Hfo_w         
	  1.134e-03  moles	[0.2 mol/(mol redoxFe(OH)3(a))]
	                                   Mole                     Log
	Species               Moles    Fraction    Molality    Molality

	Hfo_wOH           8.488e-04       0.748   8.488e-04      -3.071
	Hfo_wOH2+         1.614e-04       0.142   1.614e-04      -3.792
	Hfo_wO-           1.023e-04       0.090   1.023e-04      -3.990
	Hfo_wOFerrous+    1.696e-05       0.015   1.696e-05      -4.771
	Hfo_wOFerrousOH   4.670e-06       0.004   4.670e-06      -5.331
	Hfo_wOCa+         8.379e-09       0.000   8.379e-09      -8.077

-----------------------------Solution composition------------------------------

	Elements           Molality       Moles

	Acetate           4.380e-03   4.380e-03
	Amm               1.000e-06   1.000e-06
	C                 1.869e-05   1.869e-05
	Ca                1.454e-03   1.454e-03
	Cl                5.997e-02   5.997e-02
	Ferric            2.168e-07   2.168e-07
	Ferrous           4.021e-03   4.021e-03
	Glucose           5.400e-04   5.400e-04
	Methane           6.232e-15   6.232e-15
	Na                5.420e-02   5.420e-02
	Ozero             2.531e-03   2.531e-03

----------------------------Description of solution----------------------------

                                       pH  =   6.029      Charge balance
                                       pe  =  13.777      Adjusted to redox equilibrium
      Specific Conductance (µS/cm,  25°C)  = 6636
                        Activity of water  =   0.998
                 Ionic strength (mol/kgw)  =   6.986e-02
                       Mass of water (kg)  =   1.000e+00
                 Total alkalinity (eq/kg)  =   4.210e-03
                       Total CO2 (mol/kg)  =   1.869e-05
                         Temperature (°C)  =  25.00
                           Pressure (atm)  =  1.00
                  Electrical balance (eq)  =   9.704e-04
 Percent error, 100*(Cat-|An|)/(Cat+|An|)  =   0.75
                               Iterations  = 1442
                                  Total H  = 1.110126e+02
                                  Total O  = 5.550627e+01

----------------------------Distribution of species----------------------------

                                               Log       Log       Log    mole V
   Species          Molality    Activity  Molality  Activity     Gamma   cm³/mol

   H+              1.114e-06   9.362e-07    -5.953    -6.029    -0.076      0.00
   OH-             1.354e-08   1.067e-08    -7.868    -7.972    -0.103     (0)  
   H2O             5.551e+01   9.979e-01     1.744    -0.001     0.000     18.07
Acetate       4.380e-03
   Acetate-        4.203e-03   3.370e-03    -2.376    -2.472    -0.096     (0)  
   HAcetate        1.774e-04   1.803e-04    -3.751    -3.744     0.007     (0)  
Amm           1.000e-06
   AmmH4+          9.995e-07   7.745e-07    -6.000    -6.111    -0.111     (0)  
   AmmH3           4.639e-10   4.714e-10    -9.334    -9.327     0.007     (0)  
C(4)          1.869e-05
   CO2             1.089e-05   1.107e-05    -4.963    -4.956     0.007     (0)  
   HCO3-           6.483e-06   5.248e-06    -5.188    -5.280    -0.092     (0)  
   FerrousHCO3+    1.122e-06   9.000e-07    -5.950    -6.046    -0.096     (0)  
   NaHCO3          1.265e-07   1.286e-07    -6.898    -6.891     0.007     (0)  
   CaHCO3+         5.195e-08   4.206e-08    -7.284    -7.376    -0.092     (0)  
   FerrousCO3      1.064e-08   1.081e-08    -7.973    -7.966     0.007     (0)  
   CO3-2           6.121e-10   2.629e-10    -9.213    -9.580    -0.367     (0)  
   CaCO3           2.730e-10   2.774e-10    -9.564    -9.557     0.007     (0)  
   NaCO3-          2.660e-10   2.133e-10    -9.575    -9.671    -0.096     (0)  
Ca            1.454e-03
   Ca+2            1.454e-03   6.281e-04    -2.837    -3.202    -0.364     (0)  
   CaHCO3+         5.195e-08   4.206e-08    -7.284    -7.376    -0.092     (0)  
   CaCO3           2.730e-10   2.774e-10    -9.564    -9.557     0.007     (0)  
   CaOH+           1.386e-10   1.111e-10    -9.858    -9.954    -0.096     (0)  
Cl            5.997e-02
   Cl-             5.983e-02   4.727e-02    -1.223    -1.325    -0.102     (0)  
   FerrousCl+      1.396e-04   1.119e-04    -3.855    -3.951    -0.096     (0)  
   FerricCl+2      2.220e-13   9.174e-14   -12.654   -13.037    -0.384     (0)  
   FerricCl2+      2.416e-14   1.937e-14   -13.617   -13.713    -0.096     (0)  
   FerricCl3       9.010e-17   9.156e-17   -16.045   -16.038     0.007     (0)  
Ferric        2.168e-07
   Ferric(OH)2+    1.946e-07   1.561e-07    -6.711    -6.807    -0.096     (0)  
   Ferric(OH)3     2.109e-08   2.143e-08    -7.676    -7.669     0.007     (0)  
   FerricOH+2      1.070e-09   4.422e-10    -8.971    -9.354    -0.384     (0)  
   Ferric(OH)4-    2.598e-11   2.083e-11   -10.585   -10.681    -0.096     (0)  
   Ferric+3        3.083e-13   6.426e-14   -12.511   -13.192    -0.681     (0)  
   FerricCl+2      2.220e-13   9.174e-14   -12.654   -13.037    -0.384     (0)  
   FerricCl2+      2.416e-14   1.937e-14   -13.617   -13.713    -0.096     (0)  
   Ferric2(OH)2+4   1.804e-16   5.263e-18   -15.744   -17.279    -1.535     (0)  
   FerricCl3       9.010e-17   9.156e-17   -16.045   -16.038     0.007     (0)  
   Ferric3(OH)4+5   4.295e-20   1.716e-22   -19.367   -21.765    -2.398     (0)  
Ferrous       4.021e-03
   Ferrous+2       3.879e-03   1.715e-03    -2.411    -2.766    -0.355     (0)  
   FerrousCl+      1.396e-04   1.119e-04    -3.855    -3.951    -0.096     (0)  
   FerrousHCO3+    1.122e-06   9.000e-07    -5.950    -6.046    -0.096     (0)  
   FerrousOH+      7.209e-07   5.780e-07    -6.142    -6.238    -0.096     (0)  
   FerrousCO3      1.064e-08   1.081e-08    -7.973    -7.966     0.007     (0)  
Glucose       5.400e-04
   Glucose         5.400e-04   5.488e-04    -3.268    -3.261     0.007     (0)  
H(0)          0.000e+00
   H2              0.000e+00   0.000e+00   -42.769   -42.762     0.007     (0)  
Methane       6.232e-15
   MethaneH4       6.232e-15   6.334e-15   -14.205   -14.198     0.007     (0)  
Na            5.420e-02
   Na+             5.420e-02   4.357e-02    -1.266    -1.361    -0.095     (0)  
   NaHCO3          1.265e-07   1.286e-07    -6.898    -6.891     0.007     (0)  
   NaOH            3.019e-10   3.068e-10    -9.520    -9.513     0.007     (0)  
   NaCO3-          2.660e-10   2.133e-10    -9.575    -9.671    -0.096     (0)  
O(0)          2.728e-07
   O2              1.364e-07   1.386e-07    -6.865    -6.858     0.007     (0)  
Ozero         2.531e-03
   Ozero2          1.266e-03   1.286e-03    -2.898    -2.891     0.007     (0)  

------------------------------Saturation indices-------------------------------

  Phase               SI** log IAP   log K(298 K,   1 atm)

  FeRA           1011.56   -416.82-1428.38  C5H4O2Amm
  FixpH            -6.03     -6.03    0.00  H+
  H2(g)           -39.61    -42.76   -3.15  H2
  H2O(g)           -1.51     -0.00    1.51  H2O
  Halite           -4.27     -2.69    1.58  NaCl
  MeGA           1908.55   1699.30 -209.25  C5H4O2Amm
  ORA             487.20      8.77 -478.43  C5H4O2Amm
  ORM             759.00   -120.23 -879.23  C5H4O2Amm
  redoxAragonite   -4.45    -12.78   -8.34  CaCO3
  redoxCalcite     -4.30    -12.78   -8.48  CaCO3
  redoxCH4(g)     -11.34    -14.20   -2.86  MethaneH4
  redoxCO2(g)      -3.49     -4.96   -1.47  CO2
  redoxFe(OH)3(a)   0.00      4.89    4.89  Ferric(OH)3
  redoxGoethite     5.89      4.89   -1.00  FerricOOH
  redoxHematite    13.79      9.78   -4.01  Ferric2O3
  redoxNH3(g)     -11.10     -9.33    1.77  AmmH3
  redoxO2(g)        0.00     -2.89   -2.89  Ozero2
  redoxSiderite    -1.46    -12.35  -10.89  FerrousCO3

**For a gas, SI = log10(fugacity). Fugacity = pressure * phi / 1 atm.
  For ideal gases, phi = 1.

Reaction step 2.

Using solution 1.	
Using surface 1.	
Using pure phase assemblage 1.	
Using gas phase 1.	fixed volume gas phase
Using kinetics 1.	Decomposition

Kinetics 1.	Decomposition

	Time step: 24 seconds  (Incremented time: 48 seconds)

	Rate name       Delta Moles Total Moles   Reactant        Coefficient

	BA                1.238e-03   5.638e-01   CH2O                      0
	POM1              2.730e-04   4.072e+00   CH2O                      0
	POM2             -8.033e-04   1.965e+00   CH2O                      0
	MOM               9.731e-04   1.008e+01   CH2O                      0
	DOM1             -4.525e-04   1.936e-01   CH2O                      0
	DOM2              6.102e-04   3.472e-01   CH2O                      0
	QOM1              8.467e-05   5.364e-02   CH2O                      0
	QOM2              8.577e-04   1.129e+00   CH2O                      0
	EP1               5.233e-07   2.634e-04   CH2O                      0
	EP2               2.077e-07   1.289e-04   CH2O                      0
	EM                3.654e-07   1.962e-04   CH2O                      0
	respiration       1.057e-03   8.556e-02   CH2O                      0
	                                          Cl-                     -50
	                                          HCO3                -0.0005
	                                          Na+                     -50
	                                          Ozero2                  1.1
	Tot               2.783e-03   1.838e+01   CH2O                      0

-----------------------------------Gas phase-----------------------------------

Total pressure:  0.95      atmospheres 
    Gas volume:   5.00e-01 liters
  Molar volume:   2.57e+01 liters/mole

                                                        Moles in gas
                                            ----------------------------------
Component                log P           P     Initial       Final       Delta

redoxCH4(g)             -11.34   4.592e-12   9.377e-14   9.384e-14   7.084e-17
redoxCO2(g)              -3.47   3.363e-04   6.645e-06   6.873e-06   2.272e-07
redoxH2(g)              -99.99   0.000e+00   0.000e+00   0.000e+00   0.000e+00
redoxNH3(g)             -11.15   7.110e-12   1.636e-13   1.453e-13  -1.832e-14
redoxO2(g)               -0.02   9.508e-01   2.051e-02   1.943e-02  -1.082e-03

-------------------------------Phase assemblage--------------------------------

                                                      Moles in assemblage
Phase               SI  log IAP  log K(T, P)   Initial       Final       Delta

redoxFe(OH)3(a)   -0.00     4.89      4.89    5.671e-03   5.671e-03  -1.984e-08

------------------------------Surface composition------------------------------

Diffuse Double Layer Surface-Complexation Model

H             
	 -1.104e-02  Surface charge, eq
	 -1.248e-02  sigma, C/m²
	 -1.536e-02  psi, V
	  5.980e-01  -F*psi/RT
	  1.819e+00  exp(-F*psi/RT)
	  3.417e+04  specific area, m²/g
	  8.536e+04  m² for   2.498e+00 g


H_a           
	  1.774e-03  moles
	                                   Mole                     Log
	Species               Moles    Fraction    Molality    Molality

	H_a-              1.774e-03       1.000   1.774e-03      -2.751
	H_aH              1.241e-07       0.000   1.241e-07      -6.906
	H_aCa+            8.255e-08       0.000   8.255e-08      -7.083

H_ab          
	  2.948e-04  moles
	                                   Mole                     Log
	Species               Moles    Fraction    Molality    Molality

	H_ab-2            2.945e-04       0.999   2.945e-04      -3.531
	H_abH-            2.654e-07       0.001   2.654e-07      -6.576
	H_abCa            4.334e-09       0.000   4.334e-09      -8.363
	H_abH2            1.856e-11       0.000   1.856e-11     -10.731

H_ad          
	  2.948e-04  moles
	                                   Mole                     Log
	Species               Moles    Fraction    Molality    Molality

	H_ad-2            2.551e-04       0.865   2.551e-04      -3.593
	H_adH-            3.903e-05       0.132   3.903e-05      -4.409
	H_adCa            6.376e-07       0.002   6.376e-07      -6.195
	H_adH2            2.730e-09       0.000   2.730e-09      -8.564

H_af          
	  2.948e-04  moles
	                                   Mole                     Log
	Species               Moles    Fraction    Molality    Molality

	H_afH-            2.940e-04       0.997   2.940e-04      -3.532
	H_afCa            4.281e-07       0.001   4.281e-07      -6.368
	H_af-2            3.117e-07       0.001   3.117e-07      -6.506
	H_afH2            2.056e-08       0.000   2.056e-08      -7.687

H_ah          
	  2.948e-04  moles
	                                   Mole                     Log
	Species               Moles    Fraction    Molality    Molality

	H_ahH-            2.948e-04       1.000   2.948e-04      -3.531
	H_ahH2            2.062e-08       0.000   2.062e-08      -7.686
	H_ahCa            7.631e-10       0.000   7.631e-10      -9.117
	H_ah-2            6.528e-11       0.000   6.528e-11     -10.185

H_b           
	  1.774e-03  moles
	                                   Mole                     Log
	Species               Moles    Fraction    Molality    Molality

	H_b-              1.771e-03       0.999   1.771e-03      -2.752
	H_bH              1.596e-06       0.001   1.596e-06      -5.797
	H_bCa+            1.062e-06       0.001   1.062e-06      -5.974

H_bc          
	  2.948e-04  moles
	                                   Mole                     Log
	Species               Moles    Fraction    Molality    Molality

	H_bc-2            2.906e-04       0.986   2.906e-04      -3.537
	H_bcH-            3.452e-06       0.012   3.452e-06      -5.462
	H_bcCa            7.263e-07       0.002   7.263e-07      -6.139
	H_bcH2            3.110e-09       0.000   3.110e-09      -8.507

H_be          
	  2.948e-04  moles
	                                   Mole                     Log
	Species               Moles    Fraction    Molality    Molality

	H_beH-            2.744e-04       0.931   2.744e-04      -3.562
	H_be-2            2.012e-05       0.068   2.012e-05      -4.696
	H_beH2            2.472e-07       0.001   2.472e-07      -6.607
	H_beCa            9.152e-09       0.000   9.152e-09      -8.038

H_bg          
	  2.948e-04  moles
	                                   Mole                     Log
	Species               Moles    Fraction    Molality    Molality

	H_bgH-            2.945e-04       0.999   2.945e-04      -3.531
	H_bgH2            2.653e-07       0.001   2.653e-07      -6.576
	H_bgCa            9.823e-09       0.000   9.823e-09      -8.008
	H_bg-2            4.513e-09       0.000   4.513e-09      -8.346

H_c           
	  1.774e-03  moles
	                                   Mole                     Log
	Species               Moles    Fraction    Molality    Molality

	H_c-              1.740e-03       0.981   1.740e-03      -2.760
	H_cH              2.066e-05       0.012   2.066e-05      -4.685
	H_cCa+            1.375e-05       0.008   1.375e-05      -4.862

H_cd          
	  2.948e-04  moles
	                                   Mole                     Log
	Species               Moles    Fraction    Molality    Molality

	H_cd-2            1.867e-04       0.633   1.867e-04      -3.729
	H_cdCa            7.923e-05       0.269   7.923e-05      -4.101
	H_cdH-            2.856e-05       0.097   2.856e-05      -4.544
	H_cdH2            3.392e-07       0.001   3.392e-07      -6.470

H_cf          
	  2.948e-04  moles
	                                   Mole                     Log
	Species               Moles    Fraction    Molality    Molality

	H_cfH-            2.909e-04       0.987   2.909e-04      -3.536
	H_cfH2            3.455e-06       0.012   3.455e-06      -5.462
	H_cf-2            3.084e-07       0.001   3.084e-07      -6.511
	H_cfCa            1.279e-07       0.000   1.279e-07      -6.893

H_ch          
	  2.948e-04  moles
	                                   Mole                     Log
	Species               Moles    Fraction    Molality    Molality

	H_chH-            2.912e-04       0.988   2.912e-04      -3.536
	H_chH2            3.459e-06       0.012   3.459e-06      -5.461
	H_chCa            1.280e-07       0.000   1.280e-07      -6.893
	H_ch-2            6.449e-11       0.000   6.449e-11     -10.190

H_d           
	  1.774e-03  moles
	                                   Mole                     Log
	Species               Moles    Fraction    Molality    Molality

	H_d-              1.414e-03       0.797   1.414e-03      -2.850
	H_dH              2.163e-04       0.122   2.163e-04      -3.665
	H_dCa+            1.439e-04       0.081   1.439e-04      -3.842

H_de          
	  2.948e-04  moles
	                                   Mole                     Log
	Species               Moles    Fraction    Molality    Molality

	H_deH-            2.393e-04       0.812   2.393e-04      -3.621
	H_deH2            3.661e-05       0.124   3.661e-05      -4.436
	H_de-2            1.755e-05       0.060   1.755e-05      -4.756
	H_deCa            1.355e-06       0.005   1.355e-06      -5.868

H_dg          
	  2.948e-04  moles
	                                   Mole                     Log
	Species               Moles    Fraction    Molality    Molality

	H_dgH-            2.544e-04       0.863   2.544e-04      -3.594
	H_dgH2            3.893e-05       0.132   3.893e-05      -4.410
	H_dgCa            1.441e-06       0.005   1.441e-06      -5.841
	H_dg-2            3.898e-09       0.000   3.898e-09      -8.409

H_e           
	  8.869e-04  moles
	                                   Mole                     Log
	Species               Moles    Fraction    Molality    Molality

	H_eH              8.262e-04       0.932   8.262e-04      -3.083
	H_e-              6.059e-05       0.068   6.059e-05      -4.218
	H_eCa+            8.917e-08       0.000   8.917e-08      -7.050

H_f           
	  8.869e-04  moles
	                                   Mole                     Log
	Species               Moles    Fraction    Molality    Molality

	H_fH              8.859e-04       0.999   8.859e-04      -3.053
	H_f-              9.390e-07       0.001   9.390e-07      -6.027
	H_fCa+            9.560e-08       0.000   9.560e-08      -7.020

H_g           
	  8.869e-04  moles
	                                   Mole                     Log
	Species               Moles    Fraction    Molality    Molality

	H_gH              8.868e-04       1.000   8.868e-04      -3.052
	H_gCa+            9.570e-08       0.000   9.570e-08      -7.019
	H_g-              1.359e-08       0.000   1.359e-08      -7.867

H_h           
	  8.869e-04  moles
	                                   Mole                     Log
	Species               Moles    Fraction    Molality    Molality

	H_hH              8.868e-04       1.000   8.868e-04      -3.052
	H_hCa+            9.571e-08       0.000   9.571e-08      -7.019
	H_h-              1.964e-10       0.000   1.964e-10      -9.707

Hfo           
	  1.213e-04  Surface charge, eq
	  1.932e-01  sigma, C/m²
	  1.157e-01  psi, V
	 -4.504e+00  -F*psi/RT
	  1.107e-02  exp(-F*psi/RT)
	  1.068e+04  specific area, m²/mol redoxFe(OH)3(a)
	  6.056e+01  m² for   5.671e-03 moles of redoxFe(OH)3(a)


Hfo_s         
	  2.835e-05  moles	[0.005 mol/(mol redoxFe(OH)3(a))]
	                                   Mole                     Log
	Species               Moles    Fraction    Molality    Molality

	Hfo_sOFerrous+    1.634e-05       0.576   1.634e-05      -4.787
	Hfo_sOH           9.047e-06       0.319   9.047e-06      -5.043
	Hfo_sOH2+         1.930e-06       0.068   1.930e-06      -5.714
	Hfo_sO-           9.714e-07       0.034   9.714e-07      -6.013
	Hfo_sOHCa+2       5.931e-08       0.002   5.931e-08      -7.227

Hfo_w         
	  1.134e-03  moles	[0.2 mol/(mol redoxFe(OH)3(a))]
	                                   Mole                     Log
	Species               Moles    Fraction    Molality    Molality

	Hfo_wOH           8.453e-04       0.745   8.453e-04      -3.073
	Hfo_wOH2+         1.803e-04       0.159   1.803e-04      -3.744
	Hfo_wO-           9.076e-05       0.080   9.076e-05      -4.042
	Hfo_wOFerrous+    1.425e-05       0.013   1.425e-05      -4.846
	Hfo_wOFerrousOH   3.492e-06       0.003   3.492e-06      -5.457
	Hfo_wOCa+         7.665e-09       0.000   7.665e-09      -8.116

-----------------------------Solution composition------------------------------

	Elements           Molality       Moles

	Acetate           4.380e-03   4.380e-03
	Amm               1.000e-06   1.000e-06
	C                 1.899e-05   1.899e-05
	Ca                1.555e-03   1.555e-03
	Cl                1.128e-01   1.128e-01
	Ferric            2.367e-07   2.367e-07
	Ferrous           4.026e-03   4.026e-03
	Glucose           5.400e-04   5.400e-04
	Methane           6.162e-15   6.162e-15
	Na                1.071e-01   1.071e-01
	Ozero             2.369e-03   2.369e-03

----------------------------Description of solution----------------------------

                                       pH  =   6.005      Charge balance
                                       pe  =  13.877      Adjusted to redox equilibrium
      Specific Conductance (µS/cm,  25°C)  = 11845
                        Activity of water  =   0.996
                 Ionic strength (mol/kgw)  =   1.228e-01
                       Mass of water (kg)  =   1.000e+00
                 Total alkalinity (eq/kg)  =   4.210e-03
                       Total CO2 (mol/kg)  =   1.899e-05
                         Temperature (°C)  =  25.00
                           Pressure (atm)  =  0.95
                  Electrical balance (eq)  =   1.184e-03
 Percent error, 100*(Cat-|An|)/(Cat+|An|)  =   0.50
                               Iterations  = 239
                                  Total H  = 1.110126e+02
                                  Total O  = 5.550628e+01

----------------------------Distribution of species----------------------------

                                               Log       Log       Log    mole V
   Species          Molality    Activity  Molality  Activity     Gamma   cm³/mol

   H+              1.210e-06   9.885e-07    -5.917    -6.005    -0.088      0.00
   OH-             1.353e-08   1.009e-08    -7.869    -7.996    -0.127     (0)  
   H2O             5.551e+01   9.961e-01     1.744    -0.002     0.000     18.07
Acetate       4.380e-03
   Acetate-        4.202e-03   3.235e-03    -2.377    -2.490    -0.114     (0)  
   HAcetate        1.777e-04   1.828e-04    -3.750    -3.738     0.012     (0)  
Amm           1.000e-06
   AmmH4+          9.996e-07   7.262e-07    -6.000    -6.139    -0.139     (0)  
   AmmH3           4.070e-10   4.186e-10    -9.390    -9.378     0.012     (0)  
C(4)          1.899e-05
   CO2             1.113e-05   1.145e-05    -4.954    -4.941     0.012     (0)  
   HCO3-           6.614e-06   5.131e-06    -5.180    -5.290    -0.110     (0)  
   FerrousHCO3+    9.583e-07   7.378e-07    -6.018    -6.132    -0.114     (0)  
   NaHCO3          2.314e-07   2.381e-07    -6.636    -6.623     0.012     (0)  
   CaHCO3+         4.837e-08   3.753e-08    -7.315    -7.426    -0.110     (0)  
   FerrousCO3      8.163e-09   8.397e-09    -8.088    -8.076     0.012     (0)  
   CO3-2           6.718e-10   2.434e-10    -9.173    -9.614    -0.441     (0)  
   NaCO3-          4.858e-10   3.740e-10    -9.314    -9.427    -0.114     (0)  
   CaCO3           2.279e-10   2.344e-10    -9.642    -9.630     0.012     (0)  
Ca            1.555e-03
   Ca+2            1.555e-03   5.733e-04    -2.808    -3.242    -0.433     (0)  
   CaHCO3+         4.837e-08   3.753e-08    -7.315    -7.426    -0.110     (0)  
   CaCO3           2.279e-10   2.344e-10    -9.642    -9.630     0.012     (0)  
   CaOH+           1.245e-10   9.587e-11    -9.905   -10.018    -0.114     (0)  
Cl            1.128e-01
   Cl-             1.126e-01   8.435e-02    -0.948    -1.074    -0.126     (0)  
   FerrousCl+      2.174e-04   1.674e-04    -3.663    -3.776    -0.114     (0)  
   FerricCl+2      5.513e-13   1.937e-13   -12.259   -12.713    -0.454     (0)  
   FerricCl2+      9.479e-14   7.298e-14   -13.023   -13.137    -0.114     (0)  
   FerricCl3       5.984e-16   6.156e-16   -15.223   -15.211     0.012     (0)  
Ferric        2.367e-07
   Ferric(OH)2+    2.144e-07   1.651e-07    -6.669    -6.782    -0.114     (0)  
   Ferric(OH)3     2.083e-08   2.143e-08    -7.681    -7.669     0.012     (0)  
   FerricOH+2      1.408e-09   4.947e-10    -8.851    -9.306    -0.454     (0)  
   Ferric(OH)4-    2.558e-11   1.969e-11   -10.592   -10.706    -0.114     (0)  
   FerricCl+2      5.513e-13   1.937e-13   -12.259   -12.713    -0.454     (0)  
   Ferric+3        4.689e-13   7.605e-14   -12.329   -13.119    -0.790     (0)  
   FerricCl2+      9.479e-14   7.298e-14   -13.023   -13.137    -0.114     (0)  
   FerricCl3       5.984e-16   6.156e-16   -15.223   -15.211     0.012     (0)  
   Ferric2(OH)2+4   4.322e-16   6.588e-18   -15.364   -17.181    -1.817     (0)  
   Ferric3(OH)4+5   1.568e-19   2.272e-22   -18.805   -21.644    -2.839     (0)  
Ferrous       4.026e-03
   Ferrous+2       3.807e-03   1.438e-03    -2.419    -2.842    -0.423     (0)  
   FerrousCl+      2.174e-04   1.674e-04    -3.663    -3.776    -0.114     (0)  
   FerrousHCO3+    9.583e-07   7.378e-07    -6.018    -6.132    -0.114     (0)  
   FerrousOH+      5.951e-07   4.582e-07    -6.225    -6.339    -0.114     (0)  
   FerrousCO3      8.163e-09   8.397e-09    -8.088    -8.076     0.012     (0)  
Glucose       5.400e-04
   Glucose         5.400e-04   5.555e-04    -3.268    -3.255     0.012     (0)  
H(0)          0.000e+00
   H2              0.000e+00   0.000e+00   -42.925   -42.913     0.012     (0)  
Methane       6.162e-15
   MethaneH4       6.162e-15   6.338e-15   -14.210   -14.198     0.012     (0)  
Na            1.071e-01
   Na+             1.071e-01   8.251e-02    -0.970    -1.084    -0.113     (0)  
   NaHCO3          2.314e-07   2.381e-07    -6.636    -6.623     0.012     (0)  
   NaOH            5.340e-10   5.493e-10    -9.272    -9.260     0.012     (0)  
   NaCO3-          4.858e-10   3.740e-10    -9.314    -9.427    -0.114     (0)  
O(0)          5.391e-07
   O2              2.696e-07   2.773e-07    -6.569    -6.557     0.012     (0)  
Ozero         2.369e-03
   Ozero2          1.184e-03   1.218e-03    -2.927    -2.914     0.012     (0)  

------------------------------Saturation indices-------------------------------

  Phase               SI** log IAP   log K(298 K,   1 atm)

  FeRA           1029.99   -398.39-1428.38  C5H4O2Amm
  FixpH            -6.01     -6.01    0.00  H+
  H2(g)           -39.76    -42.91   -3.15  H2
  H2O(g)           -1.51     -0.00    1.51  H2O
  Halite           -3.74     -2.16    1.58  NaCl
  MeGA           1907.60   1698.35 -209.25  C5H4O2Amm
  ORA             486.91      8.48 -478.43  C5H4O2Amm
  ORM             758.60   -120.63 -879.23  C5H4O2Amm
  redoxAragonite   -4.52    -12.86   -8.34  CaCO3
  redoxCalcite     -4.38    -12.86   -8.48  CaCO3
  redoxCH4(g)     -11.34    -14.20   -2.86  MethaneH4
  redoxCO2(g)      -3.47     -4.94   -1.47  CO2
  redoxFe(OH)3(a)  -0.00      4.89    4.89  Ferric(OH)3
  redoxGoethite     5.89      4.89   -1.00  FerricOOH
  redoxHematite    13.80      9.79   -4.01  Ferric2O3
  redoxNH3(g)     -11.15     -9.38    1.77  AmmH3
  redoxO2(g)       -0.02     -2.91   -2.89  Ozero2
  redoxSiderite    -1.57    -12.46  -10.89  FerrousCO3

**For a gas, SI = log10(fugacity). Fugacity = pressure * phi / 1 atm.
  For ideal gases, phi = 1.

Reaction step 3.

Using solution 1.	
Using surface 1.	
Using pure phase assemblage 1.	
Using gas phase 1.	fixed volume gas phase
Using kinetics 1.	Decomposition

Kinetics 1.	Decomposition

	Time step: 24 seconds  (Incremented time: 72 seconds)

	Rate name       Delta Moles Total Moles   Reactant        Coefficient

	BA                1.230e-03   5.650e-01   CH2O                      0
	POM1              2.754e-04   4.073e+00   CH2O                      0
	POM2             -8.007e-04   1.964e+00   CH2O                      0
	MOM               9.712e-04   1.008e+01   CH2O                      0
	DOM1             -3.884e-04   1.932e-01   CH2O                      0
	DOM2              6.168e-04   3.478e-01   CH2O                      0
	QOM1              2.880e-05   5.366e-02   CH2O                      0
	QOM2              8.502e-04   1.130e+00   CH2O                      0
	EP1               5.267e-07   2.639e-04   CH2O                      0
	EP2               2.089e-07   1.292e-04   CH2O                      0
	EM                3.677e-07   1.965e-04   CH2O                      0
	respiration       1.055e-03   8.662e-02   CH2O                      0
	                                          Cl-                     -50
	                                          HCO3                -0.0005
	                                          Na+                     -50
	                                          Ozero2                  1.1
	Tot               2.785e-03   1.838e+01   CH2O                      0

-----------------------------------Gas phase-----------------------------------

Total pressure:  0.90      atmospheres 
    Gas volume:   5.00e-01 liters
  Molar volume:   2.72e+01 liters/mole

                                                        Moles in gas
                                            ----------------------------------
Component                log P           P     Initial       Final       Delta

redoxCH4(g)             -11.34   4.595e-12   9.384e-14   9.391e-14   6.984e-17
redoxCO2(g)              -3.46   3.451e-04   6.873e-06   7.052e-06   1.793e-07
redoxH2(g)              -99.99   0.000e+00   0.000e+00   0.000e+00   0.000e+00
redoxNH3(g)             -11.18   6.622e-12   1.453e-13   1.353e-13  -9.965e-15
redoxO2(g)               -0.05   8.979e-01   1.943e-02   1.835e-02  -1.081e-03

-------------------------------Phase assemblage--------------------------------

                                                      Moles in assemblage
Phase               SI  log IAP  log K(T, P)   Initial       Final       Delta

redoxFe(OH)3(a)    0.00     4.89      4.89    5.671e-03   5.671e-03  -1.092e-08

------------------------------Surface composition------------------------------

Diffuse Double Layer Surface-Complexation Model

H             
	 -1.115e-02  Surface charge, eq
	 -1.261e-02  sigma, C/m²
	 -1.304e-02  psi, V
	  5.075e-01  -F*psi/RT
	  1.661e+00  exp(-F*psi/RT)
	  3.417e+04  specific area, m²/g
	  8.536e+04  m² for   2.498e+00 g


H_a           
	  1.774e-03  moles
	                                   Mole                     Log
	Species               Moles    Fraction    Molality    Molality

	H_a-              1.774e-03       1.000   1.774e-03      -2.751
	H_aH              1.161e-07       0.000   1.161e-07      -6.935
	H_aCa+            6.413e-08       0.000   6.413e-08      -7.193

H_ab          
	  2.948e-04  moles
	                                   Mole                     Log
[...]
  redoxFe(OH)3(a)   0.00      4.89    4.89  Ferric(OH)3
  redoxGoethite     5.91      4.91   -1.00  FerricOOH
  redoxHematite    13.84      9.83   -4.01  Ferric2O3
  redoxNH3(g)     -11.30     -9.53    1.77  AmmH3
  redoxSiderite    -1.79    -12.68  -10.89  FerrousCO3

**For a gas, SI = log10(fugacity). Fugacity = pressure * phi / 1 atm.
  For ideal gases, phi = 1.

Reaction step 30.

Using solution 1.	
Using surface 1.	
Using pure phase assemblage 1.	
Using gas phase 1.	fixed volume gas phase
Using kinetics 1.	Decomposition

Kinetics 1.	Decomposition

	Time step: 24 seconds  (Incremented time: 720 seconds)

	Rate name       Delta Moles Total Moles   Reactant        Coefficient

	BA               -1.020e-03   5.746e-01   CH2O                      0
	POM1              9.821e-04   4.088e+00   CH2O                      0
	POM2             -8.287e-04   1.942e+00   CH2O                      0
	MOM               6.543e-04   1.010e+01   CH2O                      0
	DOM1              2.037e-03   2.096e-01   CH2O                      0
	DOM2              9.177e-04   3.685e-01   CH2O                      0
	QOM1              2.471e-04   5.525e-02   CH2O                      0
	QOM2              8.496e-04   1.152e+00   CH2O                      0
	EP1               3.550e-07   2.777e-04   CH2O                      0
	EP2               1.102e-07   1.344e-04   CH2O                      0
	EM                2.325e-07   2.061e-04   CH2O                      0
	respiration      -0.000e+00   1.043e-01   CH2O                      0
	                                          Cl-                     -50
	                                          HCO3                -0.0005
	                                          Na+                     -50
	                                          Ozero2                  1.1
	Tot               3.840e-03   1.847e+01   CH2O                      0

-----------------------------------Gas phase-----------------------------------

Total pressure:  0.00      atmospheres 
    Gas volume:   5.00e-01 liters
  Molar volume:   5.24e+04 liters/mole

                                                        Moles in gas
                                            ----------------------------------
Component                log P           P     Initial       Final       Delta

redoxCH4(g)             -11.33   4.647e-12   9.497e-14   9.497e-14   0.000e+00
redoxCO2(g)              -3.33   4.669e-04   9.542e-06   9.542e-06   2.711e-19
redoxH2(g)              -99.99   0.000e+00   0.000e+00   0.000e+00   0.000e+00
redoxNH3(g)             -11.30   4.984e-12   1.019e-13   1.019e-13   0.000e+00
redoxO2(g)              -99.99   0.000e+00   0.000e+00   0.000e+00   0.000e+00

-------------------------------Phase assemblage--------------------------------

                                                      Moles in assemblage
Phase               SI  log IAP  log K(T, P)   Initial       Final       Delta

redoxFe(OH)3(a)   -0.00     4.89      4.89    5.671e-03   5.671e-03   0.000e+00

------------------------------Surface composition------------------------------

Diffuse Double Layer Surface-Complexation Model

H             
	 -1.147e-02  Surface charge, eq
	 -1.296e-02  sigma, C/m²
	 -5.506e-03  psi, V
	  2.143e-01  -F*psi/RT
	  1.239e+00  exp(-F*psi/RT)
	  3.417e+04  specific area, m²/g
	  8.536e+04  m² for   2.498e+00 g


H_a           
	  1.774e-03  moles
	                                   Mole                     Log
	Species               Moles    Fraction    Molality    Molality

	H_a-              1.774e-03       1.000   1.774e-03      -2.751
	H_aH              8.622e-08       0.000   8.622e-08      -7.064
	H_aCa+            2.822e-08       0.000   2.822e-08      -7.549

H_ab          
	  2.948e-04  moles
	                                   Mole                     Log
	Species               Moles    Fraction    Molality    Molality

	H_ab-2            2.946e-04       0.999   2.946e-04      -3.531
	H_abH-            1.845e-07       0.001   1.845e-07      -6.734
	H_abCa            1.482e-09       0.000   1.482e-09      -8.829
	H_abH2            8.966e-12       0.000   8.966e-12     -11.047

H_ad          
	  2.948e-04  moles
	                                   Mole                     Log
	Species               Moles    Fraction    Molality    Molality

	H_ad-2            2.663e-04       0.903   2.663e-04      -3.575
	H_adH-            2.831e-05       0.096   2.831e-05      -4.548
	H_adCa            2.275e-07       0.001   2.275e-07      -6.643
	H_adH2            1.376e-09       0.000   1.376e-09      -8.861

H_af          
	  2.948e-04  moles
	                                   Mole                     Log
	Species               Moles    Fraction    Molality    Molality

	H_afH-            2.941e-04       0.998   2.941e-04      -3.531
	H_af-2            4.486e-07       0.002   4.486e-07      -6.348
	H_afCa            2.106e-07       0.001   2.106e-07      -6.677
	H_afH2            1.430e-08       0.000   1.430e-08      -7.845

H_ah          
	  2.948e-04  moles
	                                   Mole                     Log
	Species               Moles    Fraction    Molality    Molality

	H_ahH-            2.948e-04       1.000   2.948e-04      -3.530
	H_ahH2            1.433e-08       0.000   1.433e-08      -7.844
	H_ahCa            3.754e-10       0.000   3.754e-10      -9.426
	H_ah-2            9.393e-11       0.000   9.393e-11     -10.027

H_b           
	  1.774e-03  moles
	                                   Mole                     Log
	Species               Moles    Fraction    Molality    Molality

	H_b-              1.773e-03       0.999   1.773e-03      -2.751
	H_bH              1.110e-06       0.001   1.110e-06      -5.955
	H_bCa+            3.633e-07       0.000   3.633e-07      -6.440

H_bc          
	  2.948e-04  moles
	                                   Mole                     Log
	Species               Moles    Fraction    Molality    Molality

	H_bc-2            2.921e-04       0.991   2.921e-04      -3.534
	H_bcH-            2.411e-06       0.008   2.411e-06      -5.618
	H_bcCa            2.496e-07       0.001   2.496e-07      -6.603
	H_bcH2            1.510e-09       0.000   1.510e-09      -8.821

H_be          
	  2.948e-04  moles
	                                   Mole                     Log
	Species               Moles    Fraction    Molality    Molality

	H_beH-            2.665e-04       0.904   2.665e-04      -3.574
	H_be-2            2.812e-05       0.095   2.812e-05      -4.551
	H_beH2            1.669e-07       0.001   1.669e-07      -6.778
	H_beCa            4.372e-09       0.000   4.372e-09      -8.359

H_bg          
	  2.948e-04  moles
	                                   Mole                     Log
	Species               Moles    Fraction    Molality    Molality

	H_bgH-            2.946e-04       0.999   2.946e-04      -3.531
	H_bgH2            1.845e-07       0.001   1.845e-07      -6.734
	H_bg-2            6.495e-09       0.000   6.495e-09      -8.187
	H_bgCa            4.833e-09       0.000   4.833e-09      -8.316

H_c           
	  1.774e-03  moles
	                                   Mole                     Log
	Species               Moles    Fraction    Molality    Molality

	H_c-              1.755e-03       0.989   1.755e-03      -2.756
	H_cH              1.448e-05       0.008   1.448e-05      -4.839
	H_cCa+            4.741e-06       0.003   4.741e-06      -5.324

H_cd          
	  2.948e-04  moles
	                                   Mole                     Log
	Species               Moles    Fraction    Molality    Molality

	H_cd-2            2.354e-04       0.799   2.354e-04      -3.628
	H_cdCa            3.415e-05       0.116   3.415e-05      -4.467
	H_cdH-            2.503e-05       0.085   2.503e-05      -4.602
	H_cdH2            2.066e-07       0.001   2.066e-07      -6.685

H_cf          
	  2.948e-04  moles
	                                   Mole                     Log
	Species               Moles    Fraction    Molality    Molality

	H_cfH-            2.919e-04       0.990   2.919e-04      -3.535
	H_cfH2            2.409e-06       0.008   2.409e-06      -5.618
	H_cf-2            4.452e-07       0.002   4.452e-07      -6.351
	H_cfCa            6.312e-08       0.000   6.312e-08      -7.200

H_ch          
	  2.948e-04  moles
	                                   Mole                     Log
	Species               Moles    Fraction    Molality    Molality

	H_chH-            2.923e-04       0.992   2.923e-04      -3.534
	H_chH2            2.413e-06       0.008   2.413e-06      -5.617
	H_chCa            6.321e-08       0.000   6.321e-08      -7.199
	H_ch-2            9.315e-11       0.000   9.315e-11     -10.031

H_d           
	  1.774e-03  moles
	                                   Mole                     Log
	Species               Moles    Fraction    Molality    Molality

	H_d-              1.555e-03       0.876   1.555e-03      -2.808
	H_dH              1.653e-04       0.093   1.653e-04      -3.782
	H_dCa+            5.411e-05       0.030   5.411e-05      -4.267

H_de          
	  2.948e-04  moles
	                                   Mole                     Log
	Species               Moles    Fraction    Molality    Molality

	H_deH-            2.427e-04       0.823   2.427e-04      -3.615
	H_deH2            2.581e-05       0.088   2.581e-05      -4.588
	H_de-2            2.561e-05       0.087   2.561e-05      -4.592
	H_deCa            6.761e-07       0.002   6.761e-07      -6.170

H_dg          
	  2.948e-04  moles
	                                   Mole                     Log
	Species               Moles    Fraction    Molality    Molality

	H_dgH-            2.658e-04       0.902   2.658e-04      -3.575
	H_dgH2            2.826e-05       0.096   2.826e-05      -4.549
	H_dgCa            7.404e-07       0.003   7.404e-07      -6.131
	H_dg-2            5.859e-09       0.000   5.859e-09      -8.232

H_e           
	  8.869e-04  moles
	                                   Mole                     Log
	Species               Moles    Fraction    Molality    Molality

	H_eH              8.022e-04       0.905   8.022e-04      -3.096
	H_e-              8.465e-05       0.095   8.465e-05      -4.072
	H_eCa+            4.258e-08       0.000   4.258e-08      -7.371

H_f           
	  8.869e-04  moles
	                                   Mole                     Log
	Species               Moles    Fraction    Molality    Molality

	H_fH              8.855e-04       0.998   8.855e-04      -3.053
	H_f-              1.351e-06       0.002   1.351e-06      -5.869
	H_fCa+            4.701e-08       0.000   4.701e-08      -7.328

H_g           
	  8.869e-04  moles
	                                   Mole                     Log
	Species               Moles    Fraction    Molality    Molality

	H_gH              8.868e-04       1.000   8.868e-04      -3.052
	H_gCa+            4.708e-08       0.000   4.708e-08      -7.327
	H_g-              1.955e-08       0.000   1.955e-08      -7.709

H_h           
	  8.869e-04  moles
	                                   Mole                     Log
	Species               Moles    Fraction    Molality    Molality

	H_hH              8.869e-04       1.000   8.869e-04      -3.052
	H_hCa+            4.708e-08       0.000   4.708e-08      -7.327
	H_h-              2.826e-10       0.000   2.826e-10      -9.549

Hfo           
	  2.704e-04  Surface charge, eq
	  4.308e-01  sigma, C/m²
	  1.020e-01  psi, V
	 -3.969e+00  -F*psi/RT
	  1.890e-02  exp(-F*psi/RT)
	  1.068e+04  specific area, m²/mol redoxFe(OH)3(a)
	  6.056e+01  m² for   5.671e-03 moles of redoxFe(OH)3(a)


Hfo_s         
	  2.835e-05  moles	[0.005 mol/(mol redoxFe(OH)3(a))]
	                                   Mole                     Log
	Species               Moles    Fraction    Molality    Molality

	Hfo_sOFerrous+    1.399e-05       0.494   1.399e-05      -4.854
	Hfo_sOH           9.921e-06       0.350   9.921e-06      -5.003
	Hfo_sOH2+         3.687e-06       0.130   3.687e-06      -5.433
	Hfo_sO-           6.116e-07       0.022   6.116e-07      -6.214
	Hfo_sOHCa+2       1.396e-07       0.005   1.396e-07      -6.855

Hfo_w         
	  1.134e-03  moles	[0.2 mol/(mol redoxFe(OH)3(a))]
	                                   Mole                     Log
	Species               Moles    Fraction    Molality    Molality

	Hfo_wOH           7.831e-04       0.691   7.831e-04      -3.106
	Hfo_wOH2+         2.910e-04       0.257   2.910e-04      -3.536
	Hfo_wO-           4.828e-05       0.043   4.828e-05      -4.316
	Hfo_wOFerrous+    1.031e-05       0.009   1.031e-05      -4.987
	Hfo_wOFerrousOH   1.404e-06       0.001   1.404e-06      -5.853
	Hfo_wOCa+         8.753e-09       0.000   8.753e-09      -8.058

-----------------------------Solution composition------------------------------

	Elements           Molality       Moles

	Acetate           4.380e-03   4.380e-03
	Amm               1.000e-06   1.000e-06
	C                 2.569e-05   2.569e-05
	Ca                1.703e-03   1.703e-03
	Cl                1.050e+00   1.050e+00
	Ferric            2.355e-07   2.355e-07
	Ferrous           4.034e-03   4.034e-03
	Glucose           5.400e-04   5.400e-04
	Methane           5.027e-15   5.027e-15
	Na                1.044e+00   1.044e+00

----------------------------Description of solution----------------------------

                                       pH  =   5.996      Charge balance
                                       pe  =  14.162      Adjusted to redox equilibrium
      Specific Conductance (µS/cm,  25°C)  = 82711
                        Activity of water  =   0.964
                 Ionic strength (mol/kgw)  =   1.059e+00
                       Mass of water (kg)  =   1.000e+00
                 Total alkalinity (eq/kg)  =   4.239e-03
                       Total CO2 (mol/kg)  =   2.569e-05
                         Temperature (°C)  =  25.00
                           Pressure (atm)  =  0.00
                  Electrical balance (eq)  =   1.466e-03
 Percent error, 100*(Cat-|An|)/(Cat+|An|)  =   0.07
                               Iterations  =  53
                                  Total H  = 1.110126e+02
                                  Total O  = 5.550630e+01

----------------------------Distribution of species----------------------------

                                               Log       Log       Log    mole V
   Species          Molality    Activity  Molality  Activity     Gamma   cm³/mol

   H+              1.360e-06   1.008e-06    -5.867    -5.996    -0.130      0.00
   OH-             1.665e-08   9.573e-09    -7.779    -8.019    -0.240     (0)  
   H2O             5.551e+01   9.642e-01     1.744    -0.016     0.000     18.07
Acetate       4.380e-03
   Acetate-        4.227e-03   3.384e-03    -2.374    -2.471    -0.097     (0)  
   HAcetate        1.528e-04   1.950e-04    -3.816    -3.710     0.106     (0)  
Amm           1.000e-06
   AmmH4+          9.998e-07   5.193e-07    -6.000    -6.285    -0.284     (0)  
   AmmH3           2.300e-10   2.935e-10    -9.638    -9.532     0.106     (0)  
C(4)          2.569e-05
   CO2             1.246e-05   1.590e-05    -4.905    -4.799     0.106     (0)  
   HCO3-           1.037e-05   6.761e-06    -4.984    -5.170    -0.186     (0)  
   NaHCO3          2.234e-06   2.851e-06    -5.651    -5.545     0.106     (0)  
   FerrousHCO3+    5.664e-07   4.534e-07    -6.247    -6.344    -0.097     (0)  
   CaHCO3+         5.585e-08   3.641e-08    -7.253    -7.439    -0.186     (0)  
   NaCO3-          5.485e-09   4.391e-09    -8.261    -8.357    -0.097     (0)  
   FerrousCO3      3.964e-09   5.059e-09    -8.402    -8.296     0.106     (0)  
   CO3-2           1.740e-09   3.144e-10    -8.759    -9.502    -0.743     (0)  
   CaCO3           1.747e-10   2.230e-10    -9.758    -9.652     0.106     (0)  
Ca            1.703e-03
   Ca+2            1.703e-03   4.222e-04    -2.769    -3.375    -0.606     (0)  
   CaHCO3+         5.585e-08   3.641e-08    -7.253    -7.439    -0.186     (0)  
   CaCO3           1.747e-10   2.230e-10    -9.758    -9.652     0.106     (0)  
   CaOH+           8.369e-11   6.700e-11   -10.077   -10.174    -0.097     (0)  
Cl            1.050e+00
   Cl-             1.049e+00   6.256e-01     0.021    -0.204    -0.225     (0)  
   FerrousCl+      7.235e-04   5.792e-04    -3.141    -3.237    -0.097     (0)  
   FerricCl2+      5.868e-12   4.697e-12   -11.232   -11.328    -0.097     (0)  
   FerricCl+2      4.093e-12   1.681e-12   -11.388   -11.774    -0.386     (0)  
   FerricCl3       2.303e-13   2.939e-13   -12.638   -12.532     0.106     (0)  
Ferric        2.355e-07
   Ferric(OH)2+    2.173e-07   1.739e-07    -6.663    -6.760    -0.097     (0)  
   Ferric(OH)3     1.679e-08   2.143e-08    -7.775    -7.669     0.106     (0)  
   FerricOH+2      1.338e-09   5.493e-10    -8.874    -9.260    -0.386     (0)  
   Ferric(OH)4-    2.335e-11   1.869e-11   -10.632   -10.728    -0.097     (0)  
   FerricCl2+      5.868e-12   4.697e-12   -11.232   -11.328    -0.097     (0)  
   FerricCl+2      4.093e-12   1.681e-12   -11.388   -11.774    -0.386     (0)  
   Ferric+3        1.312e-12   8.897e-14   -11.882   -13.051    -1.169     (0)  
   FerricCl3       2.303e-13   2.939e-13   -12.638   -12.532     0.106     (0)  
   Ferric2(OH)2+4   2.855e-16   8.122e-18   -15.544   -17.090    -1.546     (0)  
   Ferric3(OH)4+5   7.685e-20   2.952e-22   -19.114   -21.530    -2.416     (0)  
Ferrous       4.034e-03
   Ferrous+2       3.310e-03   6.707e-04    -2.480    -3.174    -0.693     (0)  
   FerrousCl+      7.235e-04   5.792e-04    -3.141    -3.237    -0.097     (0)  
   FerrousHCO3+    5.664e-07   4.534e-07    -6.247    -6.344    -0.097     (0)  
   FerrousOH+      2.533e-07   2.028e-07    -6.596    -6.693    -0.097     (0)  
   FerrousCO3      3.964e-09   5.059e-09    -8.402    -8.296     0.106     (0)  
Glucose       5.400e-04
   Glucose         5.400e-04   6.891e-04    -3.268    -3.162     0.106     (0)  
H(0)          0.000e+00
   H2              0.000e+00   0.000e+00   -43.573   -43.467     0.106     (0)  
Methane       5.027e-15
   MethaneH4       5.027e-15   6.415e-15   -14.299   -14.193     0.106     (0)  
Na            1.044e+00
   Na+             1.044e+00   7.500e-01     0.019    -0.125    -0.144     (0)  
   NaHCO3          2.234e-06   2.851e-06    -5.651    -5.545     0.106     (0)  
   NaCO3-          5.485e-09   4.391e-09    -8.261    -8.357    -0.097     (0)  
   NaOH            3.713e-09   4.738e-09    -8.430    -8.324     0.106     (0)  
O(0)          5.224e-06
   O2              2.612e-06   3.334e-06    -5.583    -5.477     0.106     (0)  

------------------------------Saturation indices-------------------------------

  Phase               SI** log IAP   log K(298 K,   0 atm)

  FeRA           1083.28   -345.10-1428.38  C5H4O2Amm
  FixpH            -6.00     -6.00    0.00  H+
  H2(g)           -40.32    -43.47   -3.15  H2
  H2O(g)           -1.53     -0.02    1.51  H2O
  Halite           -1.91     -0.33    1.58  NaCl
  MeGA           1895.46   1686.21 -209.25  C5H4O2Amm
  redoxAragonite   -4.54    -12.88   -8.34  CaCO3
  redoxCalcite     -4.40    -12.88   -8.48  CaCO3
  redoxCH4(g)     -11.33    -14.19   -2.86  MethaneH4
  redoxCO2(g)      -3.33     -4.80   -1.47  CO2
  redoxFe(OH)3(a)  -0.00      4.89    4.89  Ferric(OH)3
  redoxGoethite     5.91      4.91   -1.00  FerricOOH
  redoxHematite    13.84      9.83   -4.01  Ferric2O3
  redoxNH3(g)     -11.30     -9.53    1.77  AmmH3
  redoxSiderite    -1.79    -12.68  -10.89  FerrousCO3

**For a gas, SI = log10(fugacity). Fugacity = pressure * phi / 1 atm.
  For ideal gases, phi = 1.

------------------
End of simulation.
------------------

------------------------------------
Reading input data for simulation 4.
------------------------------------

---------------------------------
End of Run after 1.31612 Seconds.
---------------------------------

