   Input file: MENDp_330b.phrq
  Output file: MENDp_330b.phrq.out
Database file: ../../database/redox.dat

------------------
Reading data base.
------------------

	SOLUTION_MASTER_SPECIES
	SOLUTION_SPECIES
	PHASES
	EXCHANGE_MASTER_SPECIES
	EXCHANGE_SPECIES
	SURFACE_MASTER_SPECIES
	SURFACE_SPECIES
	RATES
	END
------------------------------------
Reading input data for simulation 1.
------------------------------------

	DATABASE ../../database/redox.dat
	TITLE Carbon decomposition in MEND
	CALCULATE_VALUES
	 fpH
	 start
	 10 pH = -la("H+")
	 20 fpH = 10^(-0.2235*pH*pH + 2.7727*pH - 8.6)
	 30 SAVE fpH
	 end
	fsalt
	 start
	 10 logs = la("Cl-")+la("Na+")
	 20 fsalt = 1 / (1.0 + exp(-2.5 * (1.5 - logs)))  #log(umol g-1)
	 40 SAVE fsalt
	 end
	frdx
	 start
	 10 do = tot('Ozero')
	 20 frdx = do/(do+0.00002)
	 40 SAVE frdx
	 end
	SOLUTION 1
	  units       mmol/kgw
	  temperature 	 25
	  pH 	  5.72
	  Acetate 	       4.38
	  Glucose 	       0.54
	  Ferrous 	       4.00
	  C(4)        1.0 redoxCO2(g) -3.4  # in equilibrium with CO2 in atmosphere, 400 pm
	  Ca          1.0
	  Na          1.0   
	  Cl          3.0  charge
	  Ozero       0.25 redoxO2(g) 0.0   #mmol/L atm level
	  Ferric      1e-20 redoxFe(OH)3(a) 0.0
	  Methane     1.0e-10
	  Amm         1.0e-3
	  SAVE SOLUTION 1
	END
-----
TITLE
-----

 Carbon decomposition in MEND

-------------------------------------------
Beginning of initial solution calculations.
-------------------------------------------

Initial solution 1.	

-----------------------------Solution composition------------------------------

	Elements           Molality       Moles

	Acetate           4.380e-03   4.380e-03
	Amm               1.000e-06   1.000e-06
	C(4)              1.800e-05   1.800e-05  Equilibrium with redoxCO2(g)
	Ca                1.000e-03   1.000e-03
	Cl                7.001e-03   7.001e-03  Charge balance
	Ferric            3.840e-07   3.840e-07  Equilibrium with redoxFe(OH)3(a)
	Ferrous           4.000e-03   4.000e-03
	Glucose           5.400e-04   5.400e-04
	Methane           1.000e-13   1.000e-13
	Na                1.000e-03   1.000e-03
	Ozero             2.553e-03   2.553e-03  Equilibrium with redoxO2(g)

----------------------------Description of solution----------------------------

                                       pH  =   5.720    
                                       pe  =   4.000    
      Specific Conductance (µS/cm,  25°C)  = 995
                        Activity of water  =   1.000
                 Ionic strength (mol/kgw)  =   1.595e-02
                       Mass of water (kg)  =   1.000e+00
                 Total alkalinity (eq/kg)  =   4.001e-03
                       Total CO2 (mol/kg)  =   1.800e-05
                         Temperature (°C)  =  25.00
                  Electrical balance (eq)  =  -3.549e-17
 Percent error, 100*(Cat-|An|)/(Cat+|An|)  =  -0.00
                               Iterations  =  12
                                  Total H  = 1.110128e+02
                                  Total O  = 5.550626e+01

----------------------------Distribution of species----------------------------

                                               Log       Log       Log    mole V
   Species          Molality    Activity  Molality  Activity     Gamma   cm³/mol

   H+              2.123e-06   1.905e-06    -5.673    -5.720    -0.047      0.00
   OH-             5.978e-09   5.252e-09    -8.223    -8.280    -0.056     (0)  
   H2O             5.551e+01   9.997e-01     1.744    -0.000     0.000     18.07
Acetate       4.380e-03
   Acetate-        3.998e-03   3.524e-03    -2.398    -2.453    -0.055     (0)  
   HAcetate        3.823e-04   3.838e-04    -3.418    -3.416     0.002     (0)  
Amm           1.000e-06
   AmmH4+          9.997e-07   8.740e-07    -6.000    -6.058    -0.058     (0)  
   AmmH3           2.604e-10   2.614e-10    -9.584    -9.583     0.002     (0)  
C(4)          1.800e-05
   CO2             1.350e-05   1.355e-05    -4.870    -4.868     0.002     (0)  
   HCO3-           3.570e-06   3.163e-06    -5.447    -5.500    -0.053     (0)  
   FerrousHCO3+    8.868e-07   7.817e-07    -6.052    -6.107    -0.055     (0)  
   CaHCO3+         2.803e-08   2.484e-08    -7.552    -7.605    -0.053     (0)  
   FerrousCO3      4.598e-09   4.615e-09    -8.337    -8.336     0.002     (0)  
   NaHCO3          1.565e-09   1.570e-09    -8.806    -8.804     0.002     (0)  
   CO3-2           1.264e-10   7.784e-11    -9.898   -10.109    -0.211     (0)  
   CaCO3           8.019e-11   8.048e-11   -10.096   -10.094     0.002     (0)  
   NaCO3-          1.452e-12   1.280e-12   -11.838   -11.893    -0.055     (0)  
Ca            1.000e-03
   Ca+2            1.000e-03   6.155e-04    -3.000    -3.211    -0.211     (0)  
   CaHCO3+         2.803e-08   2.484e-08    -7.552    -7.605    -0.053     (0)  
   CaCO3           8.019e-11   8.048e-11   -10.096   -10.094     0.002     (0)  
   CaOH+           6.079e-11   5.359e-11   -10.216   -10.271    -0.055     (0)  
Cl            7.001e-03
   Cl-             6.977e-03   6.133e-03    -2.156    -2.212    -0.056     (0)  
   FerrousCl+      2.374e-05   2.093e-05    -4.625    -4.679    -0.055     (0)  
   FerricCl+2      1.652e-13   9.979e-14   -12.782   -13.001    -0.219     (0)  
   FerricCl2+      3.101e-15   2.734e-15   -14.508   -14.563    -0.055     (0)  
   FerricCl3       1.670e-18   1.677e-18   -17.777   -17.776     0.002     (0)  
Ferric        3.840e-07
   Ferric(OH)2+    3.597e-07   3.171e-07    -6.444    -6.499    -0.055     (0)  
   Ferric(OH)3     2.135e-08   2.143e-08    -7.671    -7.669     0.002     (0)  
   FerricOH+2      3.022e-09   1.825e-09    -8.520    -8.739    -0.219     (0)  
   Ferric(OH)4-    1.163e-11   1.025e-11   -10.934   -10.989    -0.055     (0)  
   Ferric+3        1.424e-12   5.388e-13   -11.846   -12.269    -0.422     (0)  
   FerricCl+2      1.652e-13   9.979e-14   -12.782   -13.001    -0.219     (0)  
   FerricCl2+      3.101e-15   2.734e-15   -14.508   -14.563    -0.055     (0)  
   Ferric2(OH)2+4   6.740e-16   8.965e-17   -15.171   -16.047    -0.876     (0)  
   FerricCl3       1.670e-18   1.677e-18   -17.777   -17.776     0.002     (0)  
   Ferric3(OH)4+5   1.389e-19   5.939e-21   -18.857   -20.226    -1.369     (0)  
Ferrous       4.000e-03
   Ferrous+2       3.975e-03   2.472e-03    -2.401    -2.607    -0.206     (0)  
   FerrousCl+      2.374e-05   2.093e-05    -4.625    -4.679    -0.055     (0)  
   FerrousHCO3+    8.868e-07   7.817e-07    -6.052    -6.107    -0.055     (0)  
   FerrousOH+      4.652e-07   4.101e-07    -6.332    -6.387    -0.055     (0)  
   FerrousCO3      4.598e-09   4.615e-09    -8.337    -8.336     0.002     (0)  
Glucose       5.400e-04
   Glucose         5.400e-04   5.420e-04    -3.268    -3.266     0.002     (0)  
H(0)          5.122e-23
   H2              2.561e-23   2.570e-23   -22.592   -22.590     0.002     (0)  
Methane       1.000e-13
   MethaneH4       1.000e-13   1.004e-13   -13.000   -12.998     0.002     (0)  
Na            1.000e-03
   Na+             1.000e-03   8.830e-04    -3.000    -3.054    -0.054     (0)  
   NaHCO3          1.565e-09   1.570e-09    -8.806    -8.804     0.002     (0)  
   NaOH            3.049e-12   3.061e-12   -11.516   -11.514     0.002     (0)  
   NaCO3-          1.452e-12   1.280e-12   -11.838   -11.893    -0.055     (0)  
O(0)          0.000e+00
   O2              0.000e+00   0.000e+00   -47.202   -47.200     0.002     (0)  
Ozero         2.553e-03
   Ozero2          1.277e-03   1.281e-03    -2.894    -2.892     0.002     (0)  

------------------------------Saturation indices-------------------------------

  Phase               SI** log IAP   log K(298 K,   1 atm)

  FeRA           1083.50   -344.88-1428.38  C5H4O2Amm
  FixpH            -5.72     -5.72    0.00  H+
  H2(g)           -19.44    -22.59   -3.15  H2
  H2O(g)           -1.51     -0.00    1.51  H2O
  Halite           -6.85     -5.27    1.58  NaCl
  MeGA           1812.00   1602.75 -209.25  C5H4O2Amm
  ORA             488.29      9.86 -478.43  C5H4O2Amm
  ORM             769.17   -110.06 -879.23  C5H4O2Amm
  redoxAragonite   -4.98    -13.32   -8.34  CaCO3
  redoxCalcite     -4.84    -13.32   -8.48  CaCO3
  redoxCH4(g)     -10.14    -13.00   -2.86  MethaneH4
  redoxCO2(g)      -3.40     -4.87   -1.47  CO2
  redoxFe(OH)3(a)  -0.00      4.89    4.89  Ferric(OH)3
  redoxGoethite     5.89      4.89   -1.00  FerricOOH
  redoxHematite    13.79      9.78   -4.01  Ferric2O3
  redoxNH3(g)     -11.35     -9.58    1.77  AmmH3
  redoxO2(g)        0.00     -2.89   -2.89  Ozero2
  redoxSiderite    -1.83    -12.72  -10.89  FerrousCO3

**For a gas, SI = log10(fugacity). Fugacity = pressure * phi / 1 atm.
  For ideal gases, phi = 1.

------------------
End of simulation.
------------------

------------------------------------
Reading input data for simulation 2.
------------------------------------

	GAS_PHASE 1 fixed volume gas phase
	  fixed_volume
	  volume 	   0.5
	  temperature 	 8.0
	  redoxCH4(g) 0.0
	  redoxCO2(g) 0.0
	  redoxH2(g)  0.0
	  redoxO2(g)  1.0
	  redoxNH3(g) 0.0
	  SAVE GAS_PHASE 1
	END
------------------
End of simulation.
------------------

------------------------------------
Reading input data for simulation 3.
------------------------------------

	USE SOLUTION 1
	USE GAS_PHASE 1
	EQUILIBRIUM_PHASES 1
	  redoxFe(OH)3(a) 0.0 5.67059990E-03
	SURFACE 1
	Hfo_w redoxFe(OH)3(a) 0.2 1.068E4
	Hfo_s redoxFe(OH)3(a) 0.005 1.068E4
	  H_a   1.774E-03  3.417E+04      2.498
	  H_b   1.774E-03
	 H_c   1.774E-03
	 H_d  1.774E-03
	  H_e   8.869E-04
	 H_f   8.869E-04
	 H_g  8.869E-04
	 H_h  8.869E-04
	  H_ab  2.948E-04
	 H_ad  2.948E-04
	 H_af  2.948E-04
	 H_ah  2.948E-04
	  H_bc  2.948E-04
	 H_be  2.948E-04
	 H_bg  2.948E-04
	 H_cd  2.948E-04
	  H_cf  2.948E-04
	 H_ch  2.948E-04
	 H_de  2.948E-04
	 H_dg  2.948E-04
	  equilibrate 1
	KINETICS  Decomposition
	cvode
	BA
	   m0   0.62847
	   formula CH2O 0.0   
	   parms 5e-4  0.26  3e-4 2.6  0.75  0.01  0.25   #Vd1, kD1, Vd2, kD2, Ec1, pEP, Ec2
	POM1
	   m0   4.175
	   formula CH2O 0.0    
	   parms 1.5  50  2e-5  0.5  #vp1, kp1, Ip1, gD-fraction of dead BA to D   KmO2
	POM2
	   m0   1.8248
	   formula CH2O 0.0
	   parms  1.5   5  2e-5   #vp2, kp2, Ip2,  KmO2
	MOM
	   m0   10.227
	   formula CH2O 0.0
	   parms 0.1  250  0.5   #vm, km, fD- fraction of decomposed p1/p2 to D
	DOM1
	   m0   0.29217
	   formula CH2O 0.0  
	   parms  6e-5  0.5  0.5  #Input, gD  fD
	DOM2
	   m0   0.49305
	   formula CH2O 0.0  
	   parms  6e-5  0.5  #Input, fD
	QOM1
	   m0   0.063416
	   formula CH2O 0.0   
	   parms 0.006 0.1  0.001   #adsorption constant, Qmax, desorption constant
	QOM2
	   m0   1.2586
	   formula CH2O 0.0  
	   parms 0.006  1.7 0.001   #adsorption constant, Qmax, desorption constant
	EP1
	   m0   3.232e-4
	   formula CH2O 0.0
	   parms  0.01 5e-4 0.75 1e-3  #pEP, Vd1, Ec1, rEP
	EP2
	   m0   1.4453e-4
	   formula CH2O 0.0
	   parms  0.01 5e-4 0.75 1e-3  #pEP, Vd1, Ec1, rEP
	EM
	   m0   2.3389e-4
	   formula CH2O 0.0
	   parms  0.005 5e-4 0.75 1e-3  #pEP, Vd1, Ec1, rEP
	respiration
	   m0   0.20856
	   formula CH2O 0.0    HCO3 -0.0005  Ozero2  1.1  Cl-  -50   Na+  -50
	   parms  0.75  0.25  #Ec1, Ec2
	Tot
	   m0   18.94
	   formula CH2O 0.0
	   parms  0.75  0.25 2e-5  2e-5  6e-5  6e-5   #Ip1, Ip2, Id1, Id2, Ec1, Ec2
	   steps 720 in 30 steps #hour
	  INCREMENTAL_REACTIONS true
	RATES
	BA
	   start
	     2 f1 = CALC_VALUE("fpH")
	     5 f2 = CALC_VALUE("fsalt")
	     8 f3 = CALC_VALUE("frdx")*1.007
	    10 mDOM1= kin("DOM1")
	    20 mDOM2= kin("DOM2")
	    30 bio = kin("BA")
	    40 flux1=f1*f2*f3*parm(1)*bio*mDOM1/(parm(2)+mDOM1)   #Vd1, kD1
	    50 put(flux1, 1)                                       
	    60 flux2=f1*f2*f3*parm(3)*bio*mDOM2/(parm(4)+mDOM2)   #Vd2, kD2
	    70 put(flux2, 2)                                           
	    80 flux3 = (1-parm(6)*3)*parm(1)*parm(5)*bio*0.2   ##mortality
	    90 put(flux3, 3)                              #biomass decay              
	    100 rate = parm(5)* get(1)+ parm(7)*get(2)-get(3)-(get(11)+get(13)+get(15))
	    110 save -rate * time 
	   end
	POM1
	   start
	     2 f1 = CALC_VALUE("fpH")
	     5 f2 = CALC_VALUE("fsalt")
	     8 f3 = CALC_VALUE("frdx")*1.007
	    10 mPOM1 = kin("POM1")
	    20 ep1 = kin("EP1")
	    30 flux = f1*f2*f3*parm(1) * ep1 * mPOM1 /(parm(2)+ mPOM1) # Vp1, kP1
	    40 put(flux, 4)  #flux FP1
	    50 rate = parm(3)+ (1-parm(4))*get(3)-get(4)     #input, gD
	    100 save -rate * time
	   end
	POM2
	   start
	     2 f1 = CALC_VALUE("fpH")
	     5 f2 = CALC_VALUE("fsalt")
	    10 mPOM2= kin("POM2")
	    20 ep2 = kin("EP2")
	    30 flux = f1*f2*parm(1) * ep2 * mPOM2 /(parm(2)+ mPOM2) # parm(1)=Vp2, parm(2)=Kp2
	    40 put(flux, 5)  #flux FP2
	    50 rate = parm(3)-get(5)   #parm(3)=POM2 input
	    100 save -rate * time
	   end
	MOM
	   start
	     2 f1 = CALC_VALUE("fpH")
	     5 f2 = CALC_VALUE("fsalt")
	     8 f3 = CALC_VALUE("frdx")*1.007
	    10 mMOM = kin("MOM")
	    20 em = kin("EM")
	    30 flux = f1*f2*f3*parm(1) * em * mMOM /(parm(2)+ mMOM) # parm(1)=VM, parm(2)=KM
	    40 put(flux,6)  #flux FM
	    50 rate = (1-parm(3))*(get(4)+get(5))-get(6)   #parm(3)=fD_fraction of decomposed P1/P2 to D
	    100 save -rate*time
	   end
	DOM1
	   start
	    10 rate = parm(1)+parm(2)* get(3)+get(6)+0.5*parm(3)*(get(4)+get(5))-get(1)-(get(7)-get(8))+get(12)+get(14)+get(16)
	    100 save -rate* time
	   end
	DOM2
	   start
	    50 rate = parm(1)+0.5*parm(2)*(get(4)+get(5))-get(2)-(get(9)-get(10)) 
	    100 save -rate* time
	   end
	QOM1
	   start
	    10 mQOM = kin("QOM1")
	    20 D = kin("DOM1")
	    30 flux1 = parm(1) * (1-mQOM/parm(2))* D #parm(1)=adsorption constant, parm(2)=Qmax
	    40 put(flux1,7)  #flux F4
	    50 flux2 = parm(3) * (mQOM/parm(2)) #parm(3)=desorption constant, parm(2)=Qmax
	    60 put(flux2,8)  #flux F5
	    70 rate = get(7)-get(8)
	    100 save -rate * time
	   end
	QOM2
	   start
	    10 mQOM = kin("QOM2")
	    20 D = kin("DOM2")
	    30 flux1 = parm(1) * (1-mQOM/parm(2))* D #parm(1)=adsorption constant, parm(2)=Qmax
	    40 put(flux1,9)  #flux F4
	    50 flux2 = parm(3) * (mQOM/parm(2)) #parm(3)=desorption constant, parm(2)=Qmax
	    60 put(flux2,10)  #flux F5
	    70 rate = get(9)-get(10)
	    100 save -rate * time
	   end
	EP1
	   start
	    10 p1 = kin("POM1")
	    20 p2 = kin ("POM2")
	    30 bio = kin("BA")
	    40 ep1 = kin("EP1")
	    50 flux1 = p1/(p1+p2)*parm(1)*parm(2)*parm(3)*bio *0.2
	    60 put (flux1,11)
	    70 flux2 = parm(4) *ep1
	    80 put (flux2,12)
	    90 rate = get(11)-get(12)
	    100 save -rate * time
	   end
	EP2
	   start
	    10 p1 = kin("POM1")
	    20 p2 = kin ("POM2")
	    30 bio = kin("BA")
	    40 ep2 = kin("EP2")
	    50 flux1 = p2/(p1+p2)*parm(1)*parm(2)*parm(3)*bio*0.2
	    60 put (flux1,13)
	    70 flux2 = parm(4) *ep2
	    80 put (flux2,14)
	    90 rate = get(13)-get(14)
	    100  save -rate * time
	   end
	EM
	   start
	    10 em = kin("EM")
	    20 bio = kin("BA")
	    30 flux1 = parm(1)*parm(2)*parm(3)*bio*0.2
	    40 put (flux1, 15)
	    50 flux2= parm(4)* em
	    60 put (flux2,16)
	    70 rate = get(15)-get(16)
	    100  save -rate * time
	   end
	respiration
	   start
	    10 rate = (1-parm(1))* get(1)+ (1-parm(2))*get(2)
	    20 save -rate * time
	   end
	Tot
	   start
	    10 rate = parm(3)+parm(4)+parm(5)+parm(6)- (1-parm(1))* get(1)- (1-parm(2))*get(2)
	    20 save -rate * time
	   end
	SELECTED_OUTPUT
	  reset false
	  file MENDp_330b.txt
	USER_PUNCH
	  start
	  heading Time P1 P2 M Q1 Q2 D1 D2 B EP1 EP2 EM  IC Tot pH  fpH CO2aq  O2 fsalt frdx
	  10 PUNCH SIM_TIME
	  20 PUNCH kin('POM1') kin('POM2') kin('MOM') kin('QOM1') kin('QOM2') kin('DOM1') kin('DOM2') kin('BA') kin('EP1') kin('EP2') kin('EM') 
	  30 PUNCH kin('respiration') kin("Tot")
	  40 PUNCH -la("H+")
	  50 PUNCH CALC_VALUE("fpH")
	  60 PUNCH tot('C(4)')
	  70 PUNCH tot('Ozero')
	  80 PUNCH CALC_VALUE("fsalt")  CALC_VALUE("frdx")*1.007
	  end
	END
WARNING: Suggest using master species formula in SURFACE 
	 for surface related to equilibrium_phase: H_aH.
WARNING: Suggest using master species formula in SURFACE 
	 for surface related to equilibrium_phase: H_abH2.
WARNING: Suggest using master species formula in SURFACE 
	 for surface related to equilibrium_phase: H_adH2.
WARNING: Suggest using master species formula in SURFACE 
	 for surface related to equilibrium_phase: H_afH2.
WARNING: Suggest using master species formula in SURFACE 
	 for surface related to equilibrium_phase: H_ahH2.
WARNING: Suggest using master species formula in SURFACE 
	 for surface related to equilibrium_phase: H_bH.
WARNING: Suggest using master species formula in SURFACE 
	 for surface related to equilibrium_phase: H_bcH2.
WARNING: Suggest using master species formula in SURFACE 
	 for surface related to equilibrium_phase: H_beH2.
WARNING: Suggest using master species formula in SURFACE 
	 for surface related to equilibrium_phase: H_bgH2.
WARNING: Suggest using master species formula in SURFACE 
	 for surface related to equilibrium_phase: H_cH.
WARNING: Suggest using master species formula in SURFACE 
	 for surface related to equilibrium_phase: H_cdH2.
WARNING: Suggest using master species formula in SURFACE 
	 for surface related to equilibrium_phase: H_cfH2.
WARNING: Suggest using master species formula in SURFACE 
	 for surface related to equilibrium_phase: H_chH2.
WARNING: Suggest using master species formula in SURFACE 
	 for surface related to equilibrium_phase: H_dH.
WARNING: Suggest using master species formula in SURFACE 
	 for surface related to equilibrium_phase: H_deH2.
WARNING: Suggest using master species formula in SURFACE 
	 for surface related to equilibrium_phase: H_dgH2.
WARNING: Suggest using master species formula in SURFACE 
	 for surface related to equilibrium_phase: H_eH.
WARNING: Suggest using master species formula in SURFACE 
	 for surface related to equilibrium_phase: H_fH.
WARNING: Suggest using master species formula in SURFACE 
	 for surface related to equilibrium_phase: H_gH.
WARNING: Suggest using master species formula in SURFACE 
	 for surface related to equilibrium_phase: H_hH.
WARNING: Suggest using master species formula in SURFACE 
	 for surface related to equilibrium_phase: Hfo_sOH.
WARNING: Suggest using master species formula in SURFACE 
	 for surface related to equilibrium_phase: Hfo_wOH.
WARNING: Suggest using master species formula in SURFACE 
	 for surface related to equilibrium_phase: H_aH.
WARNING: Suggest using master species formula in SURFACE 
	 for surface related to equilibrium_phase: H_abH2.
WARNING: Suggest using master species formula in SURFACE 
	 for surface related to equilibrium_phase: H_adH2.
WARNING: Suggest using master species formula in SURFACE 
	 for surface related to equilibrium_phase: H_afH2.
WARNING: Suggest using master species formula in SURFACE 
	 for surface related to equilibrium_phase: H_ahH2.
WARNING: Suggest using master species formula in SURFACE 
	 for surface related to equilibrium_phase: H_bH.
WARNING: Suggest using master species formula in SURFACE 
	 for surface related to equilibrium_phase: H_bcH2.
WARNING: Suggest using master species formula in SURFACE 
	 for surface related to equilibrium_phase: H_beH2.
WARNING: Suggest using master species formula in SURFACE 
	 for surface related to equilibrium_phase: H_bgH2.
WARNING: Suggest using master species formula in SURFACE 
	 for surface related to equilibrium_phase: H_cH.
WARNING: Suggest using master species formula in SURFACE 
	 for surface related to equilibrium_phase: H_cdH2.
WARNING: Suggest using master species formula in SURFACE 
	 for surface related to equilibrium_phase: H_cfH2.
WARNING: Suggest using master species formula in SURFACE 
	 for surface related to equilibrium_phase: H_chH2.
WARNING: Suggest using master species formula in SURFACE 
	 for surface related to equilibrium_phase: H_dH.
WARNING: Suggest using master species formula in SURFACE 
	 for surface related to equilibrium_phase: H_deH2.
WARNING: Suggest using master species formula in SURFACE 
	 for surface related to equilibrium_phase: H_dgH2.
WARNING: Suggest using master species formula in SURFACE 
	 for surface related to equilibrium_phase: H_eH.
WARNING: Suggest using master species formula in SURFACE 
	 for surface related to equilibrium_phase: H_fH.
WARNING: Suggest using master species formula in SURFACE 
	 for surface related to equilibrium_phase: H_gH.
WARNING: Suggest using master species formula in SURFACE 
	 for surface related to equilibrium_phase: H_hH.
WARNING: Suggest using master species formula in SURFACE 
	 for surface related to equilibrium_phase: Hfo_sOH.
WARNING: Suggest using master species formula in SURFACE 
	 for surface related to equilibrium_phase: Hfo_wOH.
------------------------------------------------------
Beginning of initial surface-composition calculations.
------------------------------------------------------

Surface 1.	

Diffuse Double Layer Surface-Complexation Model

H             
	 -9.499e-03  Surface charge, eq
	 -1.074e-02  sigma, C/m²
	 -3.457e-02  psi, V
	  1.346e+00  -F*psi/RT
	  3.840e+00  exp(-F*psi/RT)
	  3.417e+04  specific area, m²/g
	  8.536e+04  m² for   2.498e+00 g


H_a           
	  1.774e-03  moles
	                                   Mole                     Log
	Species               Moles    Fraction    Molality    Molality

	H_a-              1.773e-03       0.999   1.773e-03      -2.751
	H_aH              5.048e-07       0.000   5.048e-07      -6.297
	H_aCa+            3.950e-07       0.000   3.950e-07      -6.403

H_ab          
	  2.948e-04  moles
	                                   Mole                     Log
	Species               Moles    Fraction    Molality    Molality

	H_ab-2            2.937e-04       0.996   2.937e-04      -3.532
	H_abH-            1.077e-06       0.004   1.077e-06      -5.968
	H_abCa            2.069e-08       0.000   2.069e-08      -7.684
	H_abH2            3.066e-10       0.000   3.066e-10      -9.513

H_ad          
	  2.948e-04  moles
	                                   Mole                     Log
	Species               Moles    Fraction    Molality    Molality

	H_ad-2            1.803e-04       0.612   1.803e-04      -3.744
	H_adH-            1.123e-04       0.381   1.123e-04      -3.950
	H_adCa            2.157e-06       0.007   2.157e-06      -5.666
	H_adH2            3.197e-08       0.000   3.197e-08      -7.495

H_af          
	  2.948e-04  moles
	                                   Mole                     Log
	Species               Moles    Fraction    Molality    Molality

	H_afH-            2.941e-04       0.998   2.941e-04      -3.531
	H_afCa            5.036e-07       0.002   5.036e-07      -6.298
	H_afH2            8.373e-08       0.000   8.373e-08      -7.077
	H_af-2            7.660e-08       0.000   7.660e-08      -7.116

H_ah          
	  2.948e-04  moles
	                                   Mole                     Log
	Species               Moles    Fraction    Molality    Molality

	H_ahH-            2.947e-04       1.000   2.947e-04      -3.531
	H_ahH2            8.390e-08       0.000   8.390e-08      -7.076
	H_ahCa            8.973e-10       0.000   8.973e-10      -9.047
	H_ah-2            1.603e-11       0.000   1.603e-11     -10.795

H_b           
	  1.774e-03  moles
	                                   Mole                     Log
	Species               Moles    Fraction    Molality    Molality

	H_b-              1.762e-03       0.994   1.762e-03      -2.754
	H_bH              6.464e-06       0.004   6.464e-06      -5.190
	H_bCa+            5.059e-06       0.003   5.059e-06      -5.296

H_bc          
	  2.948e-04  moles
	                                   Mole                     Log
	Species               Moles    Fraction    Molality    Molality

	H_bc-2            2.780e-04       0.943   2.780e-04      -3.556
	H_bcH-            1.344e-05       0.046   1.344e-05      -4.872
	H_bcCa            3.326e-06       0.011   3.326e-06      -5.478
	H_bcH2            4.928e-08       0.000   4.928e-08      -7.307

H_be          
	  2.948e-04  moles
	                                   Mole                     Log
	Species               Moles    Fraction    Molality    Molality

	H_beH-            2.885e-04       0.979   2.885e-04      -3.540
	H_be-2            5.198e-06       0.018   5.198e-06      -5.284
	H_beH2            1.058e-06       0.004   1.058e-06      -5.975
	H_beCa            1.132e-08       0.000   1.132e-08      -7.946

H_bg          
	  2.948e-04  moles
	                                   Mole                     Log
	Species               Moles    Fraction    Molality    Molality

	H_bgH-            2.937e-04       0.996   2.937e-04      -3.532
	H_bgH2            1.077e-06       0.004   1.077e-06      -5.968
	H_bgCa            1.152e-08       0.000   1.152e-08      -7.939
	H_bg-2            1.106e-09       0.000   1.106e-09      -8.956

H_c           
	  1.774e-03  moles
	                                   Mole                     Log
	Species               Moles    Fraction    Molality    Molality

	H_c-              1.633e-03       0.921   1.633e-03      -2.787
	H_cH              7.896e-05       0.045   7.896e-05      -4.103
	H_cCa+            6.180e-05       0.035   6.180e-05      -4.209

H_cd          
	  2.948e-04  moles
	                                   Mole                     Log
	Species               Moles    Fraction    Molality    Molality

	H_cdCa            1.626e-04       0.551   1.626e-04      -3.789
	H_cd-2            8.000e-05       0.271   8.000e-05      -4.097
	H_cdH-            4.983e-05       0.169   4.983e-05      -4.303
	H_cdH2            2.409e-06       0.008   2.409e-06      -5.618

H_cf          
	  2.948e-04  moles
	                                   Mole                     Log
	Species               Moles    Fraction    Molality    Molality

	H_cfH-            2.810e-04       0.953   2.810e-04      -3.551
	H_cfH2            1.358e-05       0.046   1.358e-05      -4.867
	H_cfCa            1.453e-07       0.000   1.453e-07      -6.838
	H_cf-2            7.317e-08       0.000   7.317e-08      -7.136

H_ch          
	  2.948e-04  moles
	                                   Mole                     Log
	Species               Moles    Fraction    Molality    Molality

	H_chH-            2.811e-04       0.953   2.811e-04      -3.551
	H_chH2            1.359e-05       0.046   1.359e-05      -4.867
	H_chCa            1.453e-07       0.000   1.453e-07      -6.838
	H_ch-2            1.529e-11       0.000   1.529e-11     -10.816

H_d           
	  1.774e-03  moles
	                                   Mole                     Log
	Species               Moles    Fraction    Molality    Molality

	H_d-              8.407e-04       0.474   8.407e-04      -3.075
	H_dH              5.236e-04       0.295   5.236e-04      -3.281
	H_dCa+            4.098e-04       0.231   4.098e-04      -3.387

H_de          
	  2.948e-04  moles
	                                   Mole                     Log
	Species               Moles    Fraction    Molality    Molality

	H_deH-            1.789e-04       0.607   1.789e-04      -3.747
	H_deH2            1.114e-04       0.378   1.114e-04      -3.953
	H_de-2            3.224e-06       0.011   3.224e-06      -5.492
	H_deCa            1.192e-06       0.004   1.192e-06      -5.924

H_dg          
	  2.948e-04  moles
	                                   Mole                     Log
	Species               Moles    Fraction    Molality    Molality

	H_dgH-            1.809e-04       0.614   1.809e-04      -3.743
	H_dgH2            1.127e-04       0.382   1.127e-04      -3.948
	H_dgCa            1.205e-06       0.004   1.205e-06      -5.919
	H_dg-2            6.810e-10       0.000   6.810e-10      -9.167

H_e           
	  8.869e-04  moles
	                                   Mole                     Log
	Species               Moles    Fraction    Molality    Molality

	H_eH              8.711e-04       0.982   8.711e-04      -3.060
	H_e-              1.569e-05       0.018   1.569e-05      -4.804
	H_eCa+            1.106e-07       0.000   1.106e-07      -6.956

H_f           
	  8.869e-04  moles
	                                   Mole                     Log
	Species               Moles    Fraction    Molality    Molality

	H_fH              8.866e-04       1.000   8.866e-04      -3.052
	H_f-              2.309e-07       0.000   2.309e-07      -6.637
	H_fCa+            1.125e-07       0.000   1.125e-07      -6.949

H_g           
	  8.869e-04  moles
	                                   Mole                     Log
	Species               Moles    Fraction    Molality    Molality

	H_gH              8.868e-04       1.000   8.868e-04      -3.052
	H_gCa+            1.126e-07       0.000   1.126e-07      -6.949
	H_g-              3.338e-09       0.000   3.338e-09      -8.477

H_h           
	  8.869e-04  moles
	                                   Mole                     Log
	Species               Moles    Fraction    Molality    Molality

	H_hH              8.868e-04       1.000   8.868e-04      -3.052
	H_hCa+            1.126e-07       0.000   1.126e-07      -6.949
	H_h-              4.825e-11       0.000   4.825e-11     -10.317

Hfo           
	  6.599e-05  Surface charge, eq
	  1.051e-01  sigma, C/m²
	  1.365e-01  psi, V
	 -5.315e+00  -F*psi/RT
	  4.918e-03  exp(-F*psi/RT)
	  1.068e+04  specific area, m²/mol redoxFe(OH)3(a)
	  6.056e+01  m² for   5.671e-03 moles of redoxFe(OH)3(a)


Hfo_s         
	  2.835e-05  moles	[0.005 mol/(mol redoxFe(OH)3(a))]
	                                   Mole                     Log
	Species               Moles    Fraction    Molality    Molality

	Hfo_sOH           1.400e-05       0.494   1.400e-05      -4.854
	Hfo_sOFerrous+    1.002e-05       0.353   1.002e-05      -4.999
	Hfo_sOH2+         2.558e-06       0.090   2.558e-06      -5.592
	Hfo_sO-           1.755e-06       0.062   1.755e-06      -5.756
	Hfo_sOHCa+2       1.945e-08       0.001   1.945e-08      -7.711

Hfo_w         
	  1.134e-03  moles	[0.2 mol/(mol redoxFe(OH)3(a))]
	                                   Mole                     Log
	Species               Moles    Fraction    Molality    Molality

	Hfo_wOH           8.613e-04       0.759   8.613e-04      -3.065
	Hfo_wOH2+         1.574e-04       0.139   1.574e-04      -3.803
	Hfo_wO-           1.080e-04       0.095   1.080e-04      -3.967
	Hfo_wOFerrous+    5.754e-06       0.005   5.754e-06      -5.240
	Hfo_wOFerrousOH   1.652e-06       0.001   1.652e-06      -5.782
	Hfo_wOCa+         1.933e-09       0.000   1.933e-09      -8.714

-----------------------------------------
Beginning of batch-reaction calculations.
-----------------------------------------

Reaction step 1.

WARNING: Element Hzero is contained in gas redoxH2(g) (which has 0.0 mass),
but is not in solution or other phases.
WARNING: Element Hzero is contained in gas redoxH2(g) (which has 0.0 mass),
but is not in solution or other phases.
WARNING: Element Hzero is contained in gas redoxH2(g) (which has 0.0 mass),
but is not in solution or other phases.
WARNING: Element Hzero is contained in gas redoxH2(g) (which has 0.0 mass),
but is not in solution or other phases.
WARNING: Element Hzero is contained in gas redoxH2(g) (which has 0.0 mass),
but is not in solution or other phases.
WARNING: Element Hzero is contained in gas redoxH2(g) (which has 0.0 mass),
but is not in solution or other phases.
WARNING: Element Hzero is contained in gas redoxH2(g) (which has 0.0 mass),
but is not in solution or other phases.
WARNING: Element Hzero is contained in gas redoxH2(g) (which has 0.0 mass),
but is not in solution or other phases.
WARNING: Element Hzero is contained in gas redoxH2(g) (which has 0.0 mass),
but is not in solution or other phases.
WARNING: Element Hzero is contained in gas redoxH2(g) (which has 0.0 mass),
but is not in solution or other phases.
WARNING: Element Hzero is contained in gas redoxH2(g) (which has 0.0 mass),
but is not in solution or other phases.
WARNING: Element Hzero is contained in gas redoxH2(g) (which has 0.0 mass),
but is not in solution or other phases.
WARNING: Element Hzero is contained in gas redoxH2(g) (which has 0.0 mass),
but is not in solution or other phases.
WARNING: Element Hzero is contained in gas redoxH2(g) (which has 0.0 mass),
but is not in solution or other phases.
WARNING: Element Hzero is contained in gas redoxH2(g) (which has 0.0 mass),
but is not in solution or other phases.
WARNING: Element Hzero is contained in gas redoxH2(g) (which has 0.0 mass),
but is not in solution or other phases.
WARNING: Element Hzero is contained in gas redoxH2(g) (which has 0.0 mass),
but is not in solution or other phases.
WARNING: Element Hzero is contained in gas redoxH2(g) (which has 0.0 mass),
but is not in solution or other phases.
WARNING: Element Hzero is contained in gas redoxH2(g) (which has 0.0 mass),
but is not in solution or other phases.
WARNING: Element Hzero is contained in gas redoxH2(g) (which has 0.0 mass),
but is not in solution or other phases.
WARNING: Element Hzero is contained in gas redoxH2(g) (which has 0.0 mass),
but is not in solution or other phases.
WARNING: Element Hzero is contained in gas redoxH2(g) (which has 0.0 mass),
but is not in solution or other phases.
WARNING: Element Hzero is contained in gas redoxH2(g) (which has 0.0 mass),
but is not in solution or other phases.
WARNING: Element Hzero is contained in gas redoxH2(g) (which has 0.0 mass),
but is not in solution or other phases.
WARNING: Element Hzero is contained in gas redoxH2(g) (which has 0.0 mass),
but is not in solution or other phases.
WARNING: Element Hzero is contained in gas redoxH2(g) (which has 0.0 mass),
but is not in solution or other phases.
WARNING: Element Hzero is contained in gas redoxH2(g) (which has 0.0 mass),
but is not in solution or other phases.
WARNING: Element Hzero is contained in gas redoxH2(g) (which has 0.0 mass),
but is not in solution or other phases.
WARNING: Element Hzero is contained in gas redoxH2(g) (which has 0.0 mass),
but is not in solution or other phases.
WARNING: Element Hzero is contained in gas redoxH2(g) (which has 0.0 mass),
but is not in solution or other phases.
WARNING: Element Hzero is contained in gas redoxH2(g) (which has 0.0 mass),
but is not in solution or other phases.
WARNING: Element Hzero is contained in gas redoxH2(g) (which has 0.0 mass),
but is not in solution or other phases.
WARNING: Element Hzero is contained in gas redoxH2(g) (which has 0.0 mass),
but is not in solution or other phases.
WARNING: Element Hzero is contained in gas redoxH2(g) (which has 0.0 mass),
but is not in solution or other phases.
WARNING: Element Hzero is contained in gas redoxH2(g) (which has 0.0 mass),
but is not in solution or other phases.
WARNING: Element Hzero is contained in gas redoxH2(g) (which has 0.0 mass),
but is not in solution or other phases.
WARNING: Element Hzero is contained in gas redoxH2(g) (which has 0.0 mass),
but is not in solution or other phases.
WARNING: Element Hzero is contained in gas redoxH2(g) (which has 0.0 mass),
but is not in solution or other phases.
WARNING: Element Hzero is contained in gas redoxH2(g) (which has 0.0 mass),
but is not in solution or other phases.
WARNING: Element Hzero is contained in gas redoxH2(g) (which has 0.0 mass),
but is not in solution or other phases.
WARNING: Element Hzero is contained in gas redoxH2(g) (which has 0.0 mass),
but is not in solution or other phases.
WARNING: Element Hzero is contained in gas redoxH2(g) (which has 0.0 mass),
but is not in solution or other phases.
WARNING: Element Hzero is contained in gas redoxH2(g) (which has 0.0 mass),
but is not in solution or other phases.
WARNING: Element Hzero is contained in gas redoxH2(g) (which has 0.0 mass),
but is not in solution or other phases.
WARNING: Element Hzero is contained in gas redoxH2(g) (which has 0.0 mass),
but is not in solution or other phases.
WARNING: Element Hzero is contained in gas redoxH2(g) (which has 0.0 mass),
but is not in solution or other phases.
WARNING: Element Hzero is contained in gas redoxH2(g) (which has 0.0 mass),
but is not in solution or other phases.
WARNING: Element Hzero is contained in gas redoxH2(g) (which has 0.0 mass),
but is not in solution or other phases.
WARNING: Element Hzero is contained in gas redoxH2(g) (which has 0.0 mass),
but is not in solution or other phases.
WARNING: Element Hzero is contained in gas redoxH2(g) (which has 0.0 mass),
but is not in solution or other phases.
WARNING: Element Hzero is contained in gas redoxH2(g) (which has 0.0 mass),
but is not in solution or other phases.
WARNING: Element Hzero is contained in gas redoxH2(g) (which has 0.0 mass),
but is not in solution or other phases.
WARNING: Element Hzero is contained in gas redoxH2(g) (which has 0.0 mass),
but is not in solution or other phases.
WARNING: Element Hzero is contained in gas redoxH2(g) (which has 0.0 mass),
but is not in solution or other phases.
WARNING: Element Hzero is contained in gas redoxH2(g) (which has 0.0 mass),
but is not in solution or other phases.
WARNING: Element Hzero is contained in gas redoxH2(g) (which has 0.0 mass),
but is not in solution or other phases.
Using solution 1.	
Using surface 1.	
Using pure phase assemblage 1.	
Using gas phase 1.	fixed volume gas phase
Using kinetics 1.	Decomposition

Kinetics 1.	Decomposition

	Time step: 24 seconds  (Incremented time: 24 seconds)

	Rate name       Delta Moles Total Moles   Reactant        Coefficient

	BA                1.579e-03   6.300e-01   CH2O                      0
	POM1              2.681e-04   4.175e+00   CH2O                      0
	POM2             -7.014e-04   1.824e+00   CH2O                      0
	MOM               9.526e-04   1.023e+01   CH2O                      0
	DOM1             -9.821e-04   2.912e-01   CH2O                      0
	DOM2              6.524e-04   4.937e-01   CH2O                      0
	QOM1              1.040e-04   6.352e-02   CH2O                      0
	QOM2              6.599e-04   1.259e+00   CH2O                      0
	EP1               1.242e-07   3.233e-04   CH2O                      0
	EP2              -2.395e-08   1.445e-04   CH2O                      0
	EM                4.953e-08   2.339e-04   CH2O                      0
	respiration       1.307e-03   2.099e-01   CH2O                      0
	                                          Cl-                     -50
	                                          HCO3                -0.0005
	                                          Na+                     -50
	                                          Ozero2                  1.1
	Tot               2.533e-03   1.894e+01   CH2O                      0

-----------------------------------Gas phase-----------------------------------

Total pressure:  0.99      atmospheres 
    Gas volume:   5.00e-01 liters
  Molar volume:   2.47e+01 liters/mole

                                                        Moles in gas
                                            ----------------------------------
Component                log P           P     Initial       Final       Delta

redoxCH4(g)             -11.34   4.589e-12   0.000e+00   9.378e-14   9.378e-14
redoxCO2(g)              -3.53   2.963e-04   0.000e+00   6.056e-06   6.056e-06
redoxH2(g)              -99.99   0.000e+00   0.000e+00   0.000e+00   0.000e+00
redoxNH3(g)             -11.53   2.966e-12   0.000e+00   6.062e-14   6.062e-14
redoxO2(g)               -0.00   9.916e-01   2.167e-02   2.026e-02  -1.408e-03

-------------------------------Phase assemblage--------------------------------

                                                      Moles in assemblage
Phase               SI  log IAP  log K(T, P)   Initial       Final       Delta

redoxFe(OH)3(a)    0.00     4.89      4.89    5.671e-03   5.670e-03  -1.677e-07

------------------------------Surface composition------------------------------

Diffuse Double Layer Surface-Complexation Model

H             
	 -1.046e-02  Surface charge, eq
	 -1.183e-02  sigma, C/m²
	 -1.775e-02  psi, V
	  6.911e-01  -F*psi/RT
	  1.996e+00  exp(-F*psi/RT)
	  3.417e+04  specific area, m²/g
	  8.536e+04  m² for   2.498e+00 g


H_a           
	  1.774e-03  moles
	                                   Mole                     Log
	Species               Moles    Fraction    Molality    Molality

	H_a-              1.774e-03       1.000   1.774e-03      -2.751
	H_aH              3.422e-07       0.000   3.422e-07      -6.466
	H_aCa+            1.009e-07       0.000   1.009e-07      -6.996

H_ab          
	  2.948e-04  moles
	                                   Mole                     Log
	Species               Moles    Fraction    Molality    Molality

	H_ab-2            2.941e-04       0.998   2.941e-04      -3.532
	H_abH-            7.309e-07       0.002   7.309e-07      -6.136
	H_abCa            5.289e-09       0.000   5.289e-09      -8.277
	H_abH2            1.410e-10       0.000   1.410e-10      -9.851

H_ad          
	  2.948e-04  moles
	                                   Mole                     Log
	Species               Moles    Fraction    Molality    Molality

	H_ad-2            2.068e-04       0.702   2.068e-04      -3.684
	H_adH-            8.731e-05       0.296   8.731e-05      -4.059
	H_adCa            6.318e-07       0.002   6.318e-07      -6.199
	H_adH2            1.685e-08       0.000   1.685e-08      -7.773

H_af          
	  2.948e-04  moles
	                                   Mole                     Log
	Species               Moles    Fraction    Molality    Molality

	H_afH-            2.944e-04       0.999   2.944e-04      -3.531
	H_afCa            1.899e-07       0.001   1.899e-07      -6.721
	H_af-2            1.131e-07       0.000   1.131e-07      -6.946
	H_afH2            5.681e-08       0.000   5.681e-08      -7.246

H_ah          
	  2.948e-04  moles
	                                   Mole                     Log
	Species               Moles    Fraction    Molality    Molality

	H_ahH-            2.947e-04       1.000   2.947e-04      -3.531
	H_ahH2            5.687e-08       0.000   5.687e-08      -7.245
	H_ahCa            3.380e-10       0.000   3.380e-10      -9.471
	H_ah-2            2.366e-11       0.000   2.366e-11     -10.626

H_b           
	  1.774e-03  moles
	                                   Mole                     Log
	Species               Moles    Fraction    Molality    Molality

	H_b-              1.768e-03       0.997   1.768e-03      -2.752
	H_bH              4.395e-06       0.002   4.395e-06      -5.357
	H_bCa+            1.296e-06       0.001   1.296e-06      -5.887

H_bc          
	  2.948e-04  moles
	                                   Mole                     Log
	Species               Moles    Fraction    Molality    Molality

	H_bc-2            2.846e-04       0.965   2.846e-04      -3.546
	H_bcH-            9.325e-06       0.032   9.325e-06      -5.030
	H_bcCa            8.693e-07       0.003   8.693e-07      -6.061
	H_bcH2            2.318e-08       0.000   2.318e-08      -7.635

H_be          
	  2.948e-04  moles
	                                   Mole                     Log
	Species               Moles    Fraction    Molality    Molality

	H_beH-            2.865e-04       0.972   2.865e-04      -3.543
	H_be-2            7.615e-06       0.026   7.615e-06      -5.118
	H_beH2            7.121e-07       0.002   7.121e-07      -6.147
	H_beCa            4.232e-09       0.000   4.232e-09      -8.373

H_bg          
	  2.948e-04  moles
	                                   Mole                     Log
	Species               Moles    Fraction    Molality    Molality

	H_bgH-            2.941e-04       0.998   2.941e-04      -3.532
	H_bgH2            7.309e-07       0.002   7.309e-07      -6.136
	H_bgCa            4.345e-09       0.000   4.345e-09      -8.362
	H_bg-2            1.633e-09       0.000   1.633e-09      -8.787

H_c           
	  1.774e-03  moles
	                                   Mole                     Log
	Species               Moles    Fraction    Molality    Molality

	H_c-              1.702e-03       0.959   1.702e-03      -2.769
	H_cH              5.576e-05       0.031   5.576e-05      -4.254
	H_cCa+            1.644e-05       0.009   1.644e-05      -4.784

H_cd          
	  2.948e-04  moles
	                                   Mole                     Log
	Species               Moles    Fraction    Molality    Molality

	H_cd-2            1.508e-04       0.512   1.508e-04      -3.822
	H_cdCa            7.823e-05       0.265   7.823e-05      -4.107
	H_cdH-            6.366e-05       0.216   6.366e-05      -4.196
	H_cdH2            2.086e-06       0.007   2.086e-06      -5.681

H_cf          
	  2.948e-04  moles
	                                   Mole                     Log
	Species               Moles    Fraction    Molality    Molality

	H_cfH-            2.853e-04       0.968   2.853e-04      -3.545
	H_cfH2            9.348e-06       0.032   9.348e-06      -5.029
	H_cf-2            1.096e-07       0.000   1.096e-07      -6.960
	H_cfCa            5.556e-08       0.000   5.556e-08      -7.255

H_ch          
	  2.948e-04  moles
	                                   Mole                     Log
	Species               Moles    Fraction    Molality    Molality

	H_chH-            2.854e-04       0.968   2.854e-04      -3.545
	H_chH2            9.351e-06       0.032   9.351e-06      -5.029
	H_chCa            5.558e-08       0.000   5.558e-08      -7.255
	H_ch-2            2.291e-11       0.000   2.291e-11     -10.640

H_d           
	  1.774e-03  moles
	                                   Mole                     Log
	Species               Moles    Fraction    Molality    Molality

	H_d-              1.147e-03       0.647   1.147e-03      -2.940
	H_dH              4.842e-04       0.273   4.842e-04      -3.315
	H_dCa+            1.427e-04       0.080   1.427e-04      -3.845

H_de          
	  2.948e-04  moles
	                                   Mole                     Log
	Species               Moles    Fraction    Molality    Molality

	H_deH-            2.031e-04       0.689   2.031e-04      -3.692
	H_deH2            8.575e-05       0.291   8.575e-05      -4.067
	H_de-2            5.400e-06       0.018   5.400e-06      -5.268
	H_deCa            5.097e-07       0.002   5.097e-07      -6.293

H_dg          
	  2.948e-04  moles
	                                   Mole                     Log
	Species               Moles    Fraction    Molality    Molality

	H_dgH-            2.069e-04       0.702   2.069e-04      -3.684
	H_dgH2            8.735e-05       0.296   8.735e-05      -4.059
	H_dgCa            5.192e-07       0.002   5.192e-07      -6.285
	H_dg-2            1.149e-09       0.000   1.149e-09      -8.940

H_e           
	  8.869e-04  moles
	                                   Mole                     Log
	Species               Moles    Fraction    Molality    Molality

	H_eH              8.639e-04       0.974   8.639e-04      -3.064
	H_e-              2.296e-05       0.026   2.296e-05      -4.639
	H_eCa+            4.130e-08       0.000   4.130e-08      -7.384

H_f           
	  8.869e-04  moles
	                                   Mole                     Log
	Species               Moles    Fraction    Molality    Molality

	H_fH              8.865e-04       1.000   8.865e-04      -3.052
	H_f-              3.406e-07       0.000   3.406e-07      -6.468
	H_fCa+            4.238e-08       0.000   4.238e-08      -7.373

H_g           
	  8.869e-04  moles
	                                   Mole                     Log
	Species               Moles    Fraction    Molality    Molality

	H_gH              8.869e-04       1.000   8.869e-04      -3.052
	H_gCa+            4.240e-08       0.000   4.240e-08      -7.373
	H_g-              4.925e-09       0.000   4.925e-09      -8.308

H_h           
	  8.869e-04  moles
	                                   Mole                     Log
	Species               Moles    Fraction    Molality    Molality

	H_hH              8.869e-04       1.000   8.869e-04      -3.052
	H_hCa+            4.240e-08       0.000   4.240e-08      -7.373
	H_h-              7.119e-11       0.000   7.119e-11     -10.148

Hfo           
	  1.458e-04  Surface charge, eq
	  2.322e-01  sigma, C/m²
	  1.353e-01  psi, V
	 -5.265e+00  -F*psi/RT
	  5.168e-03  exp(-F*psi/RT)
	  1.068e+04  specific area, m²/mol redoxFe(OH)3(a)
	  6.056e+01  m² for   5.670e-03 moles of redoxFe(OH)3(a)


Hfo_s         
	  2.835e-05  moles	[0.005 mol/(mol redoxFe(OH)3(a))]
	                                   Mole                     Log
	Species               Moles    Fraction    Molality    Molality

	Hfo_sOH           1.645e-05       0.580   1.645e-05      -4.784
	Hfo_sOFerrous+    6.253e-06       0.221   6.253e-06      -5.204
	Hfo_sOH2+         4.119e-06       0.145   4.119e-06      -5.385
	Hfo_sO-           1.505e-06       0.053   1.505e-06      -5.822
	Hfo_sOHCa+2       2.385e-08       0.001   2.385e-08      -7.623

Hfo_w         
	  1.134e-03  moles	[0.2 mol/(mol redoxFe(OH)3(a))]
	                                   Mole                     Log
	Species               Moles    Fraction    Molality    Molality

	Hfo_wOH           8.425e-04       0.743   8.425e-04      -3.074
	Hfo_wOH2+         2.109e-04       0.186   2.109e-04      -3.676
	Hfo_wO-           7.708e-05       0.068   7.708e-05      -4.113
	Hfo_wOFerrous+    2.989e-06       0.003   2.989e-06      -5.525
	Hfo_wOFerrousOH   6.248e-07       0.001   6.248e-07      -6.204
	Hfo_wOCa+         1.440e-09       0.000   1.440e-09      -8.842

-----------------------------Solution composition------------------------------

	Elements           Molality       Moles

	Acetate           4.380e-03   4.380e-03
	Amm               1.000e-06   1.000e-06
	C                 1.259e-05   1.259e-05
	Ca                1.407e-03   1.407e-03
	Cl                7.236e-02   7.236e-02
	Ferric            5.518e-07   5.518e-07
	Ferrous           4.008e-03   4.008e-03
	Glucose           5.400e-04   5.400e-04
	Methane           6.216e-15   6.216e-15
	Na                6.636e-02   6.636e-02
	Ozero             2.493e-03   2.493e-03

----------------------------Description of solution----------------------------

                                       pH  =   5.605      Charge balance
                                       pe  =  14.227      Adjusted to redox equilibrium
      Specific Conductance (µS/cm,  25°C)  = 7869
                        Activity of water  =   0.997
                 Ionic strength (mol/kgw)  =   8.184e-02
                       Mass of water (kg)  =   1.000e+00
                 Total alkalinity (eq/kg)  =   3.944e-03
                       Total CO2 (mol/kg)  =   1.259e-05
                         Temperature (°C)  =  25.00
                           Pressure (atm)  =  0.99
                  Electrical balance (eq)  =   8.853e-04
 Percent error, 100*(Cat-|An|)/(Cat+|An|)  =   0.58
                               Iterations  = 1290
                                  Total H  = 1.110129e+02
                                  Total O  = 5.550625e+01

----------------------------Distribution of species----------------------------

                                               Log       Log       Log    mole V
   Species          Molality    Activity  Molality  Activity     Gamma   cm³/mol

   H+              2.981e-06   2.485e-06    -5.526    -5.605    -0.079      0.00
   OH-             5.174e-09   4.018e-09    -8.286    -8.396    -0.110     (0)  
   H2O             5.551e+01   9.974e-01     1.744    -0.001     0.000     18.07
Acetate       4.380e-03
   Acetate-        3.944e-03   3.126e-03    -2.404    -2.505    -0.101     (0)  
   HAcetate        4.357e-04   4.440e-04    -3.361    -3.353     0.008     (0)  
Amm           1.000e-06
   AmmH4+          9.998e-07   7.617e-07    -6.000    -6.118    -0.118     (0)  
   AmmH3           1.714e-10   1.747e-10    -9.766    -9.758     0.008     (0)  
C(4)          1.259e-05
   CO2             9.901e-06   1.009e-05    -5.004    -4.996     0.008     (0)  
   HCO3-           2.251e-06   1.801e-06    -5.648    -5.744    -0.097     (0)  
   FerrousHCO3+    3.702e-07   2.934e-07    -6.432    -6.532    -0.101     (0)  
   NaHCO3          5.241e-08   5.340e-08    -7.281    -7.272     0.008     (0)  
   CaHCO3+         1.671e-08   1.337e-08    -7.777    -7.874    -0.097     (0)  
   FerrousCO3      1.304e-09   1.329e-09    -8.885    -8.877     0.008     (0)  
   CO3-2           8.290e-11   3.399e-11   -10.081   -10.469    -0.387     (0)  
   NaCO3-          4.210e-11   3.337e-11   -10.376   -10.477    -0.101     (0)  
   CaCO3           3.260e-11   3.322e-11   -10.487   -10.479     0.008     (0)  
Ca            1.407e-03
   Ca+2            1.407e-03   5.817e-04    -2.852    -3.235    -0.384     (0)  
   CaHCO3+         1.671e-08   1.337e-08    -7.777    -7.874    -0.097     (0)  
   CaOH+           4.889e-11   3.875e-11   -10.311   -10.412    -0.101     (0)  
   CaCO3           3.260e-11   3.322e-11   -10.487   -10.479     0.008     (0)  
Cl            7.236e-02
   Cl-             7.220e-02   5.623e-02    -1.141    -1.250    -0.109     (0)  
   FerrousCl+      1.595e-04   1.265e-04    -3.797    -3.898    -0.101     (0)  
   FerricCl+2      5.176e-12   2.043e-12   -11.286   -11.690    -0.404     (0)  
   FerricCl2+      6.474e-13   5.131e-13   -12.189   -12.290    -0.101     (0)  
   FerricCl3       2.831e-15   2.885e-15   -14.548   -14.540     0.008     (0)  
Ferric        5.518e-07
   Ferric(OH)2+    5.228e-07   4.144e-07    -6.282    -6.383    -0.101     (0)  
   Ferric(OH)3     2.103e-08   2.143e-08    -7.677    -7.669     0.008     (0)  
   FerricOH+2      7.899e-09   3.118e-09    -8.102    -8.506    -0.404     (0)  
   Ferric(OH)4-    9.897e-12   7.845e-12   -11.004   -11.105    -0.101     (0)  
   Ferric+3        6.191e-12   1.203e-12   -11.208   -11.920    -0.711     (0)  
   FerricCl+2      5.176e-12   2.043e-12   -11.286   -11.690    -0.404     (0)  
   FerricCl2+      6.474e-13   5.131e-13   -12.189   -12.290    -0.101     (0)  
   Ferric2(OH)2+4   1.078e-14   2.616e-16   -13.967   -15.582    -1.615     (0)  
   FerricCl3       2.831e-15   2.885e-15   -14.548   -14.540     0.008     (0)  
   Ferric3(OH)4+5   7.558e-18   2.265e-20   -17.122   -19.645    -2.523     (0)  
Ferrous       4.008e-03
   Ferrous+2       3.847e-03   1.629e-03    -2.415    -2.788    -0.373     (0)  
   FerrousCl+      1.595e-04   1.265e-04    -3.797    -3.898    -0.101     (0)  
   FerrousHCO3+    3.702e-07   2.934e-07    -6.432    -6.532    -0.101     (0)  
   FerrousOH+      2.609e-07   2.068e-07    -6.584    -6.684    -0.101     (0)  
   FerrousCO3      1.304e-09   1.329e-09    -8.885    -8.877     0.008     (0)  
Glucose       5.400e-04
   Glucose         5.400e-04   5.503e-04    -3.268    -3.259     0.008     (0)  
H(0)          0.000e+00
   H2              0.000e+00   0.000e+00   -42.821   -42.813     0.008     (0)  
Methane       6.216e-15
   MethaneH4       6.216e-15   6.335e-15   -14.206   -14.198     0.008     (0)  
Na            6.636e-02
   Na+             6.636e-02   5.272e-02    -1.178    -1.278    -0.100     (0)  
   NaHCO3          5.241e-08   5.340e-08    -7.281    -7.272     0.008     (0)  
   NaOH            1.372e-10   1.398e-10    -9.863    -9.854     0.008     (0)  
   NaCO3-          4.210e-11   3.337e-11   -10.376   -10.477    -0.101     (0)  
O(0)          3.441e-07
   O2              1.720e-07   1.753e-07    -6.764    -6.756     0.008     (0)  
Ozero         2.493e-03
   Ozero2          1.247e-03   1.270e-03    -2.904    -2.896     0.008     (0)  

------------------------------Saturation indices-------------------------------

  Phase               SI** log IAP   log K(298 K,   1 atm)

  FeRA           1151.71   -276.67-1428.38  C5H4O2Amm
  FixpH            -5.60     -5.60    0.00  H+
  H2(g)           -39.66    -42.81   -3.15  H2
  H2O(g)           -1.51     -0.00    1.51  H2O
  Halite           -4.11     -2.53    1.58  NaCl
  MeGA           1952.77   1743.52 -209.25  C5H4O2Amm
  ORA             489.41     10.98 -478.43  C5H4O2Amm
  ORM             758.67   -120.56 -879.23  C5H4O2Amm
  redoxAragonite   -5.37    -13.70   -8.34  CaCO3
  redoxCalcite     -5.22    -13.70   -8.48  CaCO3
  redoxCH4(g)     -11.34    -14.20   -2.86  MethaneH4
  redoxCO2(g)      -3.53     -5.00   -1.47  CO2
  redoxFe(OH)3(a)   0.00      4.89    4.89  Ferric(OH)3
  redoxGoethite     5.89      4.89   -1.00  FerricOOH
  redoxHematite    13.79      9.79   -4.01  Ferric2O3
  redoxNH3(g)     -11.53     -9.76    1.77  AmmH3
  redoxO2(g)       -0.00     -2.90   -2.89  Ozero2
  redoxSiderite    -2.37    -13.26  -10.89  FerrousCO3

**For a gas, SI = log10(fugacity). Fugacity = pressure * phi / 1 atm.
  For ideal gases, phi = 1.

Reaction step 2.

Using solution 1.	
Using surface 1.	
Using pure phase assemblage 1.	
Using gas phase 1.	fixed volume gas phase
Using kinetics 1.	Decomposition

Kinetics 1.	Decomposition

	Time step: 24 seconds  (Incremented time: 48 seconds)

	Rate name       Delta Moles Total Moles   Reactant        Coefficient

	BA                1.492e-03   6.315e-01   CH2O                      0
	POM1              2.937e-04   4.176e+00   CH2O                      0
	POM2             -6.635e-04   1.823e+00   CH2O                      0
	MOM               9.221e-04   1.023e+01   CH2O                      0
	DOM1             -8.075e-04   2.904e-01   CH2O                      0
	DOM2              6.664e-04   4.944e-01   CH2O                      0
	QOM1              2.032e-05   6.354e-02   CH2O                      0
	QOM2              6.480e-04   1.260e+00   CH2O                      0
	EP1               1.412e-07   3.235e-04   CH2O                      0
	EP2              -1.617e-08   1.445e-04   CH2O                      0
	EM                6.193e-08   2.340e-04   CH2O                      0
	respiration       1.267e-03   2.111e-01   CH2O                      0
	                                          Cl-                     -50
	                                          HCO3                -0.0005
	                                          Na+                     -50
	                                          Ozero2                  1.1
	Tot               2.573e-03   1.895e+01   CH2O                      0

-----------------------------------Gas phase-----------------------------------

Total pressure:  0.93      atmospheres 
    Gas volume:   5.00e-01 liters
  Molar volume:   2.64e+01 liters/mole

                                                        Moles in gas
                                            ----------------------------------
Component                log P           P     Initial       Final       Delta

redoxCH4(g)             -11.34   4.593e-12   9.378e-14   9.387e-14   8.449e-17
redoxCO2(g)              -3.51   3.101e-04   6.056e-06   6.338e-06   2.819e-07
redoxH2(g)              -99.99   0.000e+00   0.000e+00   0.000e+00   0.000e+00
redoxNH3(g)             -11.58   2.601e-12   6.062e-14   5.315e-14  -7.473e-15
redoxO2(g)               -0.03   9.281e-01   2.026e-02   1.897e-02  -1.297e-03

-------------------------------Phase assemblage--------------------------------

                                                      Moles in assemblage
Phase               SI  log IAP  log K(T, P)   Initial       Final       Delta

redoxFe(OH)3(a)    0.00     4.89      4.89    5.670e-03   5.670e-03  -6.052e-08

------------------------------Surface composition------------------------------

Diffuse Double Layer Surface-Complexation Model

H             
	 -1.066e-02  Surface charge, eq
	 -1.205e-02  sigma, C/m²
	 -1.368e-02  psi, V
	  5.326e-01  -F*psi/RT
	  1.703e+00  exp(-F*psi/RT)
	  3.417e+04  specific area, m²/g
	  8.536e+04  m² for   2.498e+00 g


H_a           
	  1.774e-03  moles
	                                   Mole                     Log
	Species               Moles    Fraction    Molality    Molality

	H_a-              1.774e-03       1.000   1.774e-03      -2.751
	H_aH              3.110e-07       0.000   3.110e-07      -6.507
	H_aCa+            6.567e-08       0.000   6.567e-08      -7.183

H_ab          
	  2.948e-04  moles
	                                   Mole                     Log
	Species               Moles    Fraction    Molality    Molality

	H_ab-2            2.941e-04       0.998   2.941e-04      -3.531
	H_abH-            6.644e-07       0.002   6.644e-07      -6.178
	H_abCa            3.444e-09       0.000   3.444e-09      -8.463
	H_abH2            1.165e-10       0.000   1.165e-10      -9.934

H_ad          
	  2.948e-04  moles
	                                   Mole                     Log
	Species               Moles    Fraction    Molality    Molality

	H_ad-2            2.127e-04       0.722   2.127e-04      -3.672
	H_adH-            8.161e-05       0.277   8.161e-05      -4.088
	H_adCa            4.230e-07       0.001   4.230e-07      -6.374
	H_adH2            1.431e-08       0.000   1.431e-08      -7.844

H_af          
	  2.948e-04  moles
	                                   Mole                     Log
	Species               Moles    Fraction    Molality    Molality

	H_afH-            2.945e-04       0.999   2.945e-04      -3.531
	H_afCa            1.360e-07       0.000   1.360e-07      -6.866
	H_af-2            1.245e-07       0.000   1.245e-07      -6.905
	H_afH2            5.164e-08       0.000   5.164e-08      -7.287

H_ah          
	  2.948e-04  moles
	                                   Mole                     Log
	Species               Moles    Fraction    Molality    Molality

	H_ahH-            2.947e-04       1.000   2.947e-04      -3.531
	H_ahH2            5.168e-08       0.000   5.168e-08      -7.287
	H_ahCa            2.421e-10       0.000   2.421e-10      -9.616
	H_ah-2            2.603e-11       0.000   2.603e-11     -10.584

H_b           
	  1.774e-03  moles
	                                   Mole                     Log
	Species               Moles    Fraction    Molality    Molality

	H_b-              1.769e-03       0.997   1.769e-03      -2.752
	H_bH              3.996e-06       0.002   3.996e-06      -5.398
	H_bCa+            8.439e-07       0.000   8.439e-07      -6.074

H_bc          
	  2.948e-04  moles
	                                   Mole                     Log
	Species               Moles    Fraction    Molality    Molality

	H_bc-2            2.857e-04       0.969   2.857e-04      -3.544
	H_bcH-            8.508e-06       0.029   8.508e-06      -5.070
	H_bcCa            5.681e-07       0.002   5.681e-07      -6.246
	H_bcH2            1.922e-08       0.000   1.922e-08      -7.716

H_be          
	  2.948e-04  moles
	                                   Mole                     Log
	Species               Moles    Fraction    Molality    Molality

	H_beH-            2.858e-04       0.969   2.858e-04      -3.544
	H_be-2            8.359e-06       0.028   8.359e-06      -5.078
	H_beH2            6.456e-07       0.002   6.456e-07      -6.190
	H_beCa            3.025e-09       0.000   3.025e-09      -8.519

H_bg          
	  2.948e-04  moles
	                                   Mole                     Log
	Species               Moles    Fraction    Molality    Molality

	H_bgH-            2.941e-04       0.998   2.941e-04      -3.531
	H_bgH2            6.644e-07       0.002   6.644e-07      -6.178
	H_bgCa            3.113e-09       0.000   3.113e-09      -8.507
	H_bg-2            1.797e-09       0.000   1.797e-09      -8.745

H_c           
	  1.774e-03  moles
	                                   Mole                     Log
	Species               Moles    Fraction    Molality    Molality

	H_c-              1.712e-03       0.965   1.712e-03      -2.766
	H_cH              5.099e-05       0.029   5.099e-05      -4.293
	H_cCa+            1.077e-05       0.006   1.077e-05      -4.968

H_cd          
	  2.948e-04  moles
	                                   Mole                     Log
	Species               Moles    Fraction    Molality    Molality

	H_cd-2            1.701e-04       0.577   1.701e-04      -3.769
	H_cdH-            6.527e-05       0.221   6.527e-05      -4.185
	H_cdCa            5.745e-05       0.195   5.745e-05      -4.241
	H_cdH2            1.944e-06       0.007   1.944e-06      -5.711

H_cf          
	  2.948e-04  moles
	                                   Mole                     Log
	Species               Moles    Fraction    Molality    Molality

	H_cfH-            2.861e-04       0.971   2.861e-04      -3.543
	H_cfH2            8.520e-06       0.029   8.520e-06      -5.070
	H_cf-2            1.210e-07       0.000   1.210e-07      -6.917
	H_cfCa            3.992e-08       0.000   3.992e-08      -7.399

H_ch          
	  2.948e-04  moles
	                                   Mole                     Log
	Species               Moles    Fraction    Molality    Molality

	H_chH-            2.862e-04       0.971   2.862e-04      -3.543
	H_chH2            8.524e-06       0.029   8.524e-06      -5.069
	H_chCa            3.993e-08       0.000   3.993e-08      -7.399
	H_ch-2            2.528e-11       0.000   2.528e-11     -10.597

H_d           
	  1.774e-03  moles
	                                   Mole                     Log
	Species               Moles    Fraction    Molality    Molality

	H_d-              1.211e-03       0.683   1.211e-03      -2.917
	H_dH              4.646e-04       0.262   4.646e-04      -3.333
	H_dCa+            9.812e-05       0.055   9.812e-05      -4.008

H_de          
	  2.948e-04  moles
	                                   Mole                     Log
	Species               Moles    Fraction    Molality    Molality

	H_deH-            2.084e-04       0.707   2.084e-04      -3.681
	H_deH2            7.994e-05       0.271   7.994e-05      -4.097
	H_de-2            6.095e-06       0.021   6.095e-06      -5.215
	H_deCa            3.745e-07       0.001   3.745e-07      -6.427

H_dg          
	  2.948e-04  moles
	                                   Mole                     Log
	Species               Moles    Fraction    Molality    Molality

	H_dgH-            2.128e-04       0.722   2.128e-04      -3.672
	H_dgH2            8.163e-05       0.277   8.163e-05      -4.088
	H_dgCa            3.824e-07       0.001   3.824e-07      -6.417
	H_dg-2            1.300e-09       0.000   1.300e-09      -8.886

H_e           
	  8.869e-04  moles
	                                   Mole                     Log
	Species               Moles    Fraction    Molality    Molality

	H_eH              8.617e-04       0.972   8.617e-04      -3.065
	H_e-              2.520e-05       0.028   2.520e-05      -4.599
	H_eCa+            2.951e-08       0.000   2.951e-08      -7.530

H_f           
	  8.869e-04  moles
	                                   Mole                     Log
	Species               Moles    Fraction    Molality    Molality

	H_fH              8.865e-04       1.000   8.865e-04      -3.052
	H_f-              3.748e-07       0.000   3.748e-07      -6.426
	H_fCa+            3.036e-08       0.000   3.036e-08      -7.518

H_g           
	  8.869e-04  moles
	                                   Mole                     Log
	Species               Moles    Fraction    Molality    Molality

	H_gH              8.869e-04       1.000   8.869e-04      -3.052
	H_gCa+            3.037e-08       0.000   3.037e-08      -7.518
	H_g-              5.419e-09       0.000   5.419e-09      -8.266

H_h           
	  8.869e-04  moles
	                                   Mole                     Log
	Species               Moles    Fraction    Molality    Molality

	H_hH              8.869e-04       1.000   8.869e-04      -3.052
	H_hCa+            3.037e-08       0.000   3.037e-08      -7.518
	H_h-              7.834e-11       0.000   7.834e-11     -10.106

Hfo           
	  1.860e-04  Surface charge, eq
	  2.964e-01  sigma, C/m²
	  1.331e-01  psi, V
	 -5.181e+00  -F*psi/RT
	  5.624e-03  exp(-F*psi/RT)
	  1.068e+04  specific area, m²/mol redoxFe(OH)3(a)
	  6.056e+01  m² for   5.670e-03 moles of redoxFe(OH)3(a)


Hfo_s         
	  2.835e-05  moles	[0.005 mol/(mol redoxFe(OH)3(a))]
	                                   Mole                     Log
	Species               Moles    Fraction    Molality    Molality

	Hfo_sOH           1.674e-05       0.590   1.674e-05      -4.776
	Hfo_sOFerrous+    5.406e-06       0.191   5.406e-06      -5.267
	Hfo_sOH2+         4.858e-06       0.171   4.858e-06      -5.314
	Hfo_sO-           1.322e-06       0.047   1.322e-06      -5.879
	Hfo_sOHCa+2       2.569e-08       0.001   2.569e-08      -7.590

Hfo_w         
	  1.134e-03  moles	[0.2 mol/(mol redoxFe(OH)3(a))]
	                                   Mole                     Log
	Species               Moles    Fraction    Molality    Molality

	Hfo_wOH           8.262e-04       0.729   8.262e-04      -3.083
	Hfo_wOH2+         2.397e-04       0.211   2.397e-04      -3.620
	Hfo_wO-           6.522e-05       0.058   6.522e-05      -4.186
	Hfo_wOFerrous+    2.490e-06       0.002   2.490e-06      -5.604
	Hfo_wOFerrousOH   4.482e-07       0.000   4.482e-07      -6.349
	Hfo_wOCa+         1.290e-09       0.000   1.290e-09      -8.890

-----------------------------Solution composition------------------------------

	Elements           Molality       Moles

	Acetate           4.380e-03   4.380e-03
	Amm               1.000e-06   1.000e-06
	C                 1.294e-05   1.294e-05
	Ca                1.479e-03   1.479e-03
	Cl                1.357e-01   1.357e-01
	Ferric            6.123e-07   6.123e-07
	Ferrous           4.009e-03   4.009e-03
	Glucose           5.400e-04   5.400e-04
	Methane           6.132e-15   6.132e-15
	Na                1.297e-01   1.297e-01
	Ozero             2.300e-03   2.300e-03

----------------------------Description of solution----------------------------

                                       pH  =   5.577      Charge balance
                                       pe  =  14.328      Adjusted to redox equilibrium
      Specific Conductance (µS/cm,  25°C)  = 14007
                        Activity of water  =   0.995
                 Ionic strength (mol/kgw)  =   1.452e-01
                       Mass of water (kg)  =   1.000e+00
                 Total alkalinity (eq/kg)  =   3.941e-03
                       Total CO2 (mol/kg)  =   1.294e-05
                         Temperature (°C)  =  25.00
                           Pressure (atm)  =  0.93
                  Electrical balance (eq)  =   1.037e-03
 Percent error, 100*(Cat-|An|)/(Cat+|An|)  =   0.37
                               Iterations  = 240
                                  Total H  = 1.110129e+02
                                  Total O  = 5.550625e+01

----------------------------Distribution of species----------------------------

                                               Log       Log       Log    mole V
   Species          Molality    Activity  Molality  Activity     Gamma   cm³/mol

   H+              3.266e-06   2.646e-06    -5.486    -5.577    -0.091      0.00
   OH-             5.140e-09   3.766e-09    -8.289    -8.424    -0.135     (0)  
   H2O             5.551e+01   9.953e-01     1.744    -0.002     0.000     18.07
Acetate       4.380e-03
   Acetate-        3.941e-03   3.000e-03    -2.404    -2.523    -0.119     (0)  
   HAcetate        4.387e-04   4.536e-04    -3.358    -3.343     0.015     (0)  
Amm           1.000e-06
   AmmH4+          9.999e-07   7.111e-07    -6.000    -6.148    -0.148     (0)  
   AmmH3           1.481e-10   1.531e-10    -9.829    -9.815     0.015     (0)  
C(4)          1.294e-05
   CO2             1.021e-05   1.056e-05    -4.991    -4.976     0.015     (0)  
   HCO3-           2.307e-06   1.767e-06    -5.637    -5.753    -0.116     (0)  
   FerrousHCO3+    3.142e-07   2.392e-07    -6.503    -6.621    -0.119     (0)  
   NaHCO3          9.485e-08   9.807e-08    -7.023    -7.008     0.015     (0)  
   CaHCO3+         1.530e-08   1.172e-08    -7.815    -7.931    -0.116     (0)  
   FerrousCO3      9.836e-10   1.017e-09    -9.007    -8.993     0.015     (0)  
   CO3-2           9.110e-11   3.131e-11   -10.040   -10.504    -0.464     (0)  
   NaCO3-          7.561e-11   5.756e-11   -10.121   -10.240    -0.119     (0)  
   CaCO3           2.644e-11   2.734e-11   -10.578   -10.563     0.015     (0)  
Ca            1.479e-03
   Ca+2            1.479e-03   5.199e-04    -2.830    -3.284    -0.454     (0)  
   CaHCO3+         1.530e-08   1.172e-08    -7.815    -7.931    -0.116     (0)  
   CaOH+           4.264e-11   3.245e-11   -10.370   -10.489    -0.119     (0)  
   CaCO3           2.644e-11   2.734e-11   -10.578   -10.563     0.015     (0)  
Cl            1.357e-01
   Cl-             1.355e-01   9.975e-02    -0.868    -1.001    -0.133     (0)  
   FerrousCl+      2.450e-04   1.865e-04    -3.611    -3.729    -0.119     (0)  
   FerricCl+2      1.312e-11   4.404e-12   -10.882   -11.356    -0.474     (0)  
   FerricCl2+      2.578e-12   1.962e-12   -11.589   -11.707    -0.119     (0)  
   FerricCl3       1.893e-14   1.958e-14   -13.723   -13.708     0.015     (0)  
Ferric        6.123e-07
   Ferric(OH)2+    5.810e-07   4.422e-07    -6.236    -6.354    -0.119     (0)  
   Ferric(OH)3     2.072e-08   2.143e-08    -7.684    -7.669     0.015     (0)  
   FerricOH+2      1.058e-08   3.550e-09    -7.976    -8.450    -0.474     (0)  
   FerricCl+2      1.312e-11   4.404e-12   -10.882   -11.356    -0.474     (0)  
   Ferric+3        9.714e-12   1.462e-12   -11.013   -11.835    -0.823     (0)  
   Ferric(OH)4-    9.658e-12   7.351e-12   -11.015   -11.134    -0.119     (0)  
   FerricCl2+      2.578e-12   1.962e-12   -11.589   -11.707    -0.119     (0)  
   Ferric2(OH)2+4   2.671e-14   3.393e-16   -13.573   -15.469    -1.896     (0)  
   FerricCl3       1.893e-14   1.958e-14   -13.723   -13.708     0.015     (0)  
   Ferric3(OH)4+5   2.876e-17   3.135e-20   -16.541   -19.504    -2.963     (0)  
Ferrous       4.009e-03
   Ferrous+2       3.764e-03   1.354e-03    -2.424    -2.868    -0.444     (0)  
   FerrousCl+      2.450e-04   1.865e-04    -3.611    -3.729    -0.119     (0)  
   FerrousHCO3+    3.142e-07   2.392e-07    -6.503    -6.621    -0.119     (0)  
   FerrousOH+      2.116e-07   1.611e-07    -6.674    -6.793    -0.119     (0)  
   FerrousCO3      9.836e-10   1.017e-09    -9.007    -8.993     0.015     (0)  
Glucose       5.400e-04
   Glucose         5.400e-04   5.584e-04    -3.268    -3.253     0.015     (0)  
H(0)          0.000e+00
   H2              0.000e+00   0.000e+00   -42.975   -42.961     0.015     (0)  
Methane       6.132e-15
   MethaneH4       6.132e-15   6.340e-15   -14.212   -14.198     0.015     (0)  
Na            1.297e-01
   Na+             1.297e-01   9.872e-02    -0.887    -1.006    -0.119     (0)  
   NaHCO3          9.485e-08   9.807e-08    -7.023    -7.008     0.015     (0)  
   NaOH            2.373e-10   2.453e-10    -9.625    -9.610     0.015     (0)  
   NaCO3-          7.561e-11   5.756e-11   -10.121   -10.240    -0.119     (0)  
O(0)          6.671e-07
   O2              3.336e-07   3.449e-07    -6.477    -6.462     0.015     (0)  
Ozero         2.300e-03
   Ozero2          1.150e-03   1.189e-03    -2.939    -2.925     0.015     (0)  

------------------------------Saturation indices-------------------------------

  Phase               SI** log IAP   log K(298 K,   1 atm)

  FeRA           1171.75   -256.63-1428.38  C5H4O2Amm
  FixpH            -5.58     -5.58    0.00  H+
  H2(g)           -39.81    -42.96   -3.15  H2
  H2O(g)           -1.51     -0.00    1.51  H2O
  Halite           -3.59     -2.01    1.58  NaCl
  MeGA           1951.65   1742.40 -209.25  C5H4O2Amm
  ORA             489.07     10.64 -478.43  C5H4O2Amm
  ORM             758.18   -121.05 -879.23  C5H4O2Amm
  redoxAragonite   -5.45    -13.79   -8.34  CaCO3
  redoxCalcite     -5.31    -13.79   -8.48  CaCO3
  redoxCH4(g)     -11.34    -14.20   -2.86  MethaneH4
  redoxCO2(g)      -3.51     -4.98   -1.47  CO2
  redoxFe(OH)3(a)   0.00      4.89    4.89  Ferric(OH)3
  redoxGoethite     5.89      4.89   -1.00  FerricOOH
  redoxHematite    13.80      9.79   -4.01  Ferric2O3
  redoxNH3(g)     -11.58     -9.81    1.77  AmmH3
  redoxO2(g)       -0.03     -2.92   -2.89  Ozero2
  redoxSiderite    -2.48    -13.37  -10.89  FerrousCO3

**For a gas, SI = log10(fugacity). Fugacity = pressure * phi / 1 atm.
  For ideal gases, phi = 1.

Reaction step 3.

Using solution 1.	
Using surface 1.	
Using pure phase assemblage 1.	
Using gas phase 1.	fixed volume gas phase
Using kinetics 1.	Decomposition

Kinetics 1.	Decomposition

	Time step: 24 seconds  (Incremented time: 72 seconds)

	Rate name       Delta Moles Total Moles   Reactant        Coefficient

	BA                1.460e-03   6.330e-01   CH2O                      0
	POM1              3.040e-04   4.176e+00   CH2O                      0
	POM2             -6.493e-04   1.823e+00   CH2O                      0
	MOM               9.107e-04   1.023e+01   CH2O                      0
	DOM1             -7.344e-04   2.896e-01   CH2O                      0
	DOM2              6.771e-04   4.950e-01   CH2O                      0
	QOM1             -1.884e-05   6.352e-02   CH2O                      0
	QOM2              6.370e-04   1.261e+00   CH2O                      0
	EP1               1.571e-07   3.236e-04   CH2O                      0
	EP2              -8.847e-09   1.445e-04   CH2O                      0
	EM                7.357e-08   2.341e-04   CH2O                      0
	respiration       1.254e-03   2.124e-01   CH2O                      0
	                                          Cl-                     -50
	                                          HCO3                -0.0005
	                                          Na+                     -50
	                                          Ozero2                  1.1
	Tot               2.586e-03   1.895e+01   CH2O                      0

-----------------------------------Gas phase-----------------------------------

Total pressure:  0.87      atmospheres 
    Gas volume:   5.00e-01 liters
  Molar volume:   2.83e+01 liters/mole

                                                        Moles in gas
                                            ----------------------------------
Component                log P           P     Initial       Final       Delta

redoxCH4(g)             -11.34   4.597e-12   9.387e-14   9.395e-14   8.246e-17
redoxCO2(g)              -3.49   3.229e-04   6.338e-06   6.598e-06   2.598e-07
redoxH2(g)              -99.99   0.000e+00   0.000e+00   0.000e+00   0.000e+00
redoxNH3(g)             -11.62   2.405e-12   5.315e-14   4.915e-14  -4.002e-15
redoxO2(g)               -0.06   8.652e-01   1.897e-02   1.768e-02  -1.286e-03

-------------------------------Phase assemblage--------------------------------

                                                      Moles in assemblage
Phase               SI  log IAP  log K(T, P)   Initial       Final       Delta

redoxFe(OH)3(a)   -0.00     4.89      4.89    5.670e-03   5.670e-03  -3.328e-08

------------------------------Surface composition------------------------------

Diffuse Double Layer Surface-Complexation Model

H             
	 -1.075e-02  Surface charge, eq
	 -1.215e-02  sigma, C/m²
	 -1.157e-02  psi, V
	  4.505e-01  -F*psi/RT
	  1.569e+00  exp(-F*psi/RT)
	  3.417e+04  specific area, m²/g
	  8.536e+04  m² for   2.498e+00 g


H_a           
	  1.774e-03  moles
	                                   Mole                     Log
	Species               Moles    Fraction    Molality    Molality

	H_a-              1.774e-03       1.000   1.774e-03      -2.751
	H_aH              2.951e-07       0.000   2.951e-07      -6.530
	H_aCa+            5.152e-08       0.000   5.152e-08      -7.288

H_ab          
	  2.948e-04  moles
	                                   Mole                     Log
[...]
  redoxFe(OH)3(a)  -0.00      4.89    4.89  Ferric(OH)3
  redoxGoethite     5.91      4.91   -1.00  FerricOOH
  redoxHematite    13.84      9.83   -4.01  Ferric2O3
  redoxNH3(g)     -11.75     -9.98    1.77  AmmH3
  redoxSiderite    -2.65    -13.54  -10.89  FerrousCO3

**For a gas, SI = log10(fugacity). Fugacity = pressure * phi / 1 atm.
  For ideal gases, phi = 1.

Reaction step 30.

Using solution 1.	
Using surface 1.	
Using pure phase assemblage 1.	
Using gas phase 1.	fixed volume gas phase
Using kinetics 1.	Decomposition

Kinetics 1.	Decomposition

	Time step: 24 seconds  (Incremented time: 720 seconds)

	Rate name       Delta Moles Total Moles   Reactant        Coefficient

	BA               -1.131e-03   6.371e-01   CH2O                      0
	POM1              1.037e-03   4.194e+00   CH2O                      0
	POM2             -6.224e-04   1.806e+00   CH2O                      0
	MOM               5.512e-04   1.025e+01   CH2O                      0
	DOM1              2.129e-03   3.093e-01   CH2O                      0
	DOM2              1.089e-03   5.198e-01   CH2O                      0
	QOM1              1.605e-04   6.475e-02   CH2O                      0
	QOM2              6.268e-04   1.276e+00   CH2O                      0
	EP1               1.057e-07   3.299e-04   CH2O                      0
	EP2              -3.003e-08   1.452e-04   CH2O                      0
	EM                3.756e-08   2.376e-04   CH2O                      0
	respiration      -0.000e+00   2.294e-01   CH2O                      0
	                                          Cl-                     -50
	                                          HCO3                -0.0005
	                                          Na+                     -50
	                                          Ozero2                  1.1
	Tot               3.840e-03   1.903e+01   CH2O                      0

-----------------------------------Gas phase-----------------------------------

Total pressure:  0.00      atmospheres 
    Gas volume:   5.00e-01 liters
  Molar volume:   4.93e+04 liters/mole

                                                        Moles in gas
                                            ----------------------------------
Component                log P           P     Initial       Final       Delta

redoxCH4(g)             -11.33   4.647e-12   9.497e-14   9.497e-14   0.000e+00
redoxCO2(g)              -3.30   4.962e-04   1.014e-05   1.014e-05  -2.084e-19
redoxH2(g)              -99.99   0.000e+00   0.000e+00   0.000e+00   0.000e+00
redoxNH3(g)             -11.75   1.791e-12   3.659e-14   3.659e-14   0.000e+00
redoxO2(g)              -99.99   0.000e+00   0.000e+00   0.000e+00   0.000e+00

-------------------------------Phase assemblage--------------------------------

                                                      Moles in assemblage
Phase               SI  log IAP  log K(T, P)   Initial       Final       Delta

redoxFe(OH)3(a)    0.00     4.89      4.89    5.670e-03   5.670e-03   0.000e+00

------------------------------Surface composition------------------------------

Diffuse Double Layer Surface-Complexation Model

H             
	 -1.100e-02  Surface charge, eq
	 -1.243e-02  sigma, C/m²
	 -5.282e-03  psi, V
	  2.056e-01  -F*psi/RT
	  1.228e+00  exp(-F*psi/RT)
	  3.417e+04  specific area, m²/g
	  8.536e+04  m² for   2.498e+00 g


H_a           
	  1.774e-03  moles
	                                   Mole                     Log
	Species               Moles    Fraction    Molality    Molality

	H_a-              1.774e-03       1.000   1.774e-03      -2.751
	H_aH              2.379e-07       0.000   2.379e-07      -6.624
	H_aCa+            2.563e-08       0.000   2.563e-08      -7.591

H_ab          
	  2.948e-04  moles
	                                   Mole                     Log
	Species               Moles    Fraction    Molality    Molality

	H_ab-2            2.943e-04       0.998   2.943e-04      -3.531
	H_abH-            5.086e-07       0.002   5.086e-07      -6.294
	H_abCa            1.345e-09       0.000   1.345e-09      -8.871
	H_abH2            6.822e-11       0.000   6.822e-11     -10.166

H_ad          
	  2.948e-04  moles
	                                   Mole                     Log
	Species               Moles    Fraction    Molality    Molality

	H_ad-2            2.278e-04       0.773   2.278e-04      -3.643
	H_adH-            6.684e-05       0.227   6.684e-05      -4.175
	H_adCa            1.767e-07       0.001   1.767e-07      -6.753
	H_adH2            8.967e-09       0.000   8.967e-09      -8.047

H_af          
	  2.948e-04  moles
	                                   Mole                     Log
	Species               Moles    Fraction    Molality    Molality

	H_afH-            2.945e-04       0.999   2.945e-04      -3.531
	H_af-2            1.628e-07       0.001   1.628e-07      -6.788
	H_afCa            6.940e-08       0.000   6.940e-08      -7.159
	H_afH2            3.951e-08       0.000   3.951e-08      -7.403

H_ah          
	  2.948e-04  moles
	                                   Mole                     Log
	Species               Moles    Fraction    Molality    Molality

	H_ahH-            2.948e-04       1.000   2.948e-04      -3.531
	H_ahH2            3.954e-08       0.000   3.954e-08      -7.403
	H_ahCa            1.235e-10       0.000   1.235e-10      -9.908
	H_ah-2            3.403e-11       0.000   3.403e-11     -10.468

H_b           
	  1.774e-03  moles
	                                   Mole                     Log
	Species               Moles    Fraction    Molality    Molality

	H_b-              1.771e-03       0.998   1.771e-03      -2.752
	H_bH              3.060e-06       0.002   3.060e-06      -5.514
	H_bCa+            3.295e-07       0.000   3.295e-07      -6.482

H_bc          
	  2.948e-04  moles
	                                   Mole                     Log
	Species               Moles    Fraction    Molality    Molality

	H_bc-2            2.880e-04       0.977   2.880e-04      -3.541
	H_bcH-            6.561e-06       0.022   6.561e-06      -5.183
	H_bcCa            2.235e-07       0.001   2.235e-07      -6.651
	H_bcH2            1.134e-08       0.000   1.134e-08      -7.945

H_be          
	  2.948e-04  moles
	                                   Mole                     Log
	Species               Moles    Fraction    Molality    Molality

	H_beH-            2.835e-04       0.962   2.835e-04      -3.547
	H_be-2            1.084e-05       0.037   1.084e-05      -4.965
	H_beH2            4.899e-07       0.002   4.899e-07      -6.310
	H_beCa            1.530e-09       0.000   1.530e-09      -8.815

H_bg          
	  2.948e-04  moles
	                                   Mole                     Log
	Species               Moles    Fraction    Molality    Molality

	H_bgH-            2.943e-04       0.998   2.943e-04      -3.531
	H_bgH2            5.086e-07       0.002   5.086e-07      -6.294
	H_bg-2            2.351e-09       0.000   2.351e-09      -8.629
	H_bgCa            1.589e-09       0.000   1.589e-09      -8.799

H_c           
	  1.774e-03  moles
	                                   Mole                     Log
	Species               Moles    Fraction    Molality    Molality

	H_c-              1.730e-03       0.975   1.730e-03      -2.762
	H_cH              3.942e-05       0.022   3.942e-05      -4.404
	H_cCa+            4.245e-06       0.002   4.245e-06      -5.372

H_cd          
	  2.948e-04  moles
	                                   Mole                     Log
	Species               Moles    Fraction    Molality    Molality

	H_cd-2            2.059e-04       0.698   2.059e-04      -3.686
	H_cdH-            6.042e-05       0.205   6.042e-05      -4.219
	H_cdCa            2.713e-05       0.092   2.713e-05      -4.567
	H_cdH2            1.376e-06       0.005   1.376e-06      -5.861

H_cf          
	  2.948e-04  moles
	                                   Mole                     Log
	Species               Moles    Fraction    Molality    Molality

	H_cfH-            2.881e-04       0.977   2.881e-04      -3.541
	H_cfH2            6.562e-06       0.022   6.562e-06      -5.183
	H_cf-2            1.592e-07       0.001   1.592e-07      -6.798
	H_cfCa            2.050e-08       0.000   2.050e-08      -7.688

H_ch          
	  2.948e-04  moles
	                                   Mole                     Log
	Species               Moles    Fraction    Molality    Molality

	H_chH-            2.882e-04       0.978   2.882e-04      -3.540
	H_chH2            6.566e-06       0.022   6.566e-06      -5.183
	H_chCa            2.051e-08       0.000   2.051e-08      -7.688
	H_ch-2            3.328e-11       0.000   3.328e-11     -10.478

H_d           
	  1.774e-03  moles
	                                   Mole                     Log
	Species               Moles    Fraction    Molality    Molality

	H_d-              1.339e-03       0.755   1.339e-03      -2.873
	H_dH              3.929e-04       0.221   3.929e-04      -3.406
	H_dCa+            4.232e-05       0.024   4.232e-05      -4.373

H_de          
	  2.948e-04  moles
	                                   Mole                     Log
	Species               Moles    Fraction    Molality    Molality

	H_deH-            2.212e-04       0.750   2.212e-04      -3.655
	H_deH2            6.492e-05       0.220   6.492e-05      -4.188
	H_de-2            8.458e-06       0.029   8.458e-06      -5.073
	H_deCa            2.028e-07       0.001   2.028e-07      -6.693

H_dg          
	  2.948e-04  moles
	                                   Mole                     Log
	Species               Moles    Fraction    Molality    Molality

	H_dgH-            2.278e-04       0.773   2.278e-04      -3.643
	H_dgH2            6.684e-05       0.227   6.684e-05      -4.175
	H_dgCa            2.088e-07       0.001   2.088e-07      -6.680
	H_dg-2            1.819e-09       0.000   1.819e-09      -8.740

H_e           
	  8.869e-04  moles
	                                   Mole                     Log
	Species               Moles    Fraction    Molality    Molality

	H_eH              8.542e-04       0.963   8.542e-04      -3.068
	H_e-              3.266e-05       0.037   3.266e-05      -4.486
	H_eCa+            1.492e-08       0.000   1.492e-08      -7.826

H_f           
	  8.869e-04  moles
	                                   Mole                     Log
	Species               Moles    Fraction    Molality    Molality

	H_fH              8.864e-04       0.999   8.864e-04      -3.052
	H_f-              4.898e-07       0.001   4.898e-07      -6.310
	H_fCa+            1.548e-08       0.000   1.548e-08      -7.810

H_g           
	  8.869e-04  moles
	                                   Mole                     Log
	Species               Moles    Fraction    Molality    Molality

	H_gH              8.869e-04       1.000   8.869e-04      -3.052
	H_gCa+            1.549e-08       0.000   1.549e-08      -7.810
	H_g-              7.084e-09       0.000   7.084e-09      -8.150

H_h           
	  8.869e-04  moles
	                                   Mole                     Log
	Species               Moles    Fraction    Molality    Molality

	H_hH              8.869e-04       1.000   8.869e-04      -3.052
	H_hCa+            1.549e-08       0.000   1.549e-08      -7.810
	H_h-              1.024e-10       0.000   1.024e-10      -9.990

Hfo           
	  3.746e-04  Surface charge, eq
	  5.968e-01  sigma, C/m²
	  1.182e-01  psi, V
	 -4.603e+00  -F*psi/RT
	  1.002e-02  exp(-F*psi/RT)
	  1.068e+04  specific area, m²/mol redoxFe(OH)3(a)
	  6.056e+01  m² for   5.670e-03 moles of redoxFe(OH)3(a)


Hfo_s         
	  2.835e-05  moles	[0.005 mol/(mol redoxFe(OH)3(a))]
	                                   Mole                     Log
	Species               Moles    Fraction    Molality    Molality

	Hfo_sOH           1.523e-05       0.537   1.523e-05      -4.817
	Hfo_sOH2+         8.358e-06       0.295   8.358e-06      -5.078
	Hfo_sOFerrous+    4.070e-06       0.144   4.070e-06      -5.390
	Hfo_sO-           6.359e-07       0.022   6.359e-07      -6.197
	Hfo_sOHCa+2       5.573e-08       0.002   5.573e-08      -7.254

Hfo_w         
	  1.134e-03  moles	[0.2 mol/(mol redoxFe(OH)3(a))]
	                                   Mole                     Log
	Species               Moles    Fraction    Molality    Molality

	Hfo_wOH           7.118e-04       0.628   7.118e-04      -3.148
	Hfo_wOH2+         3.906e-04       0.344   3.906e-04      -3.408
	Hfo_wO-           2.972e-05       0.026   2.972e-05      -4.527
	Hfo_wOFerrous+    1.775e-06       0.002   1.775e-06      -5.751
	Hfo_wOFerrousOH   1.637e-07       0.000   1.637e-07      -6.786
	Hfo_wOCa+         1.401e-09       0.000   1.401e-09      -8.854

-----------------------------Solution composition------------------------------

	Elements           Molality       Moles

	Acetate           4.380e-03   4.380e-03
	Amm               1.000e-06   1.000e-06
	C                 1.829e-05   1.829e-05
	Ca                1.574e-03   1.574e-03
	Cl                1.050e+00   1.050e+00
	Ferric            6.324e-07   6.324e-07
	Ferrous           4.011e-03   4.011e-03
	Glucose           5.400e-04   5.400e-04
	Methane           5.027e-15   5.027e-15
	Na                1.044e+00   1.044e+00

----------------------------Description of solution----------------------------

                                       pH  =   5.552      Charge balance
                                       pe  =  14.607      Adjusted to redox equilibrium
      Specific Conductance (µS/cm,  25°C)  = 82721
                        Activity of water  =   0.964
                 Ionic strength (mol/kgw)  =   1.059e+00
                       Mass of water (kg)  =   1.000e+00
                 Total alkalinity (eq/kg)  =   3.981e-03
                       Total CO2 (mol/kg)  =   1.829e-05
                         Temperature (°C)  =  25.00
                           Pressure (atm)  =  0.00
                  Electrical balance (eq)  =   1.190e-03
 Percent error, 100*(Cat-|An|)/(Cat+|An|)  =   0.06
                               Iterations  =  48
                                  Total H  = 1.110129e+02
                                  Total O  = 5.550627e+01

----------------------------Distribution of species----------------------------

                                               Log       Log       Log    mole V
   Species          Molality    Activity  Molality  Activity     Gamma   cm³/mol

   H+              3.785e-06   2.807e-06    -5.422    -5.552    -0.130      0.00
   OH-             5.981e-09   3.439e-09    -8.223    -8.464    -0.240     (0)  
   H2O             5.551e+01   9.642e-01     1.744    -0.016     0.000     18.07
Acetate       4.380e-03
   Acetate-        3.980e-03   3.186e-03    -2.400    -2.497    -0.097     (0)  
   HAcetate        4.005e-04   5.110e-04    -3.397    -3.292     0.106     (0)  
Amm           1.000e-06
   AmmH4+          9.999e-07   5.194e-07    -6.000    -6.284    -0.284     (0)  
   AmmH3           8.263e-11   1.054e-10   -10.083    -9.977     0.106     (0)  
C(4)          1.829e-05
   CO2             1.324e-05   1.689e-05    -4.878    -4.772     0.106     (0)  
   HCO3-           3.958e-06   2.581e-06    -5.402    -5.588    -0.186     (0)  
   NaHCO3          8.529e-07   1.088e-06    -6.069    -5.963     0.106     (0)  
   FerrousHCO3+    2.150e-07   1.721e-07    -6.668    -6.764    -0.097     (0)  
   CaHCO3+         1.970e-08   1.285e-08    -7.705    -7.891    -0.186     (0)  
   NaCO3-          7.522e-10   6.021e-10    -9.124    -9.220    -0.097     (0)  
   FerrousCO3      5.405e-10   6.898e-10    -9.267    -9.161     0.106     (0)  
   CO3-2           2.386e-10   4.312e-11    -9.622   -10.365    -0.743     (0)  
   CaCO3           2.214e-11   2.826e-11   -10.655   -10.549     0.106     (0)  
Ca            1.574e-03
   Ca+2            1.574e-03   3.901e-04    -2.803    -3.409    -0.606     (0)  
   CaHCO3+         1.970e-08   1.285e-08    -7.705    -7.891    -0.186     (0)  
   CaOH+           2.778e-11   2.224e-11   -10.556   -10.653    -0.097     (0)  
   CaCO3           2.214e-11   2.826e-11   -10.655   -10.549     0.106     (0)  
Cl            1.050e+00
   Cl-             1.049e+00   6.258e-01     0.021    -0.204    -0.225     (0)  
   FerrousCl+      7.197e-04   5.761e-04    -3.143    -3.240    -0.097     (0)  
   FerricCl2+      1.267e-10   1.014e-10    -9.897    -9.994    -0.097     (0)  
   FerricCl+2      8.837e-11   3.628e-11   -10.054   -10.440    -0.387     (0)  
   FerricCl3       4.973e-12   6.346e-12   -11.303   -11.197     0.106     (0)  
Ferric        6.324e-07
   Ferric(OH)2+    6.050e-07   4.843e-07    -6.218    -6.315    -0.097     (0)  
   Ferric(OH)3     1.679e-08   2.143e-08    -7.775    -7.669     0.106     (0)  
   FerricOH+2      1.037e-08   4.258e-09    -7.984    -8.371    -0.387     (0)  
   FerricCl2+      1.267e-10   1.014e-10    -9.897    -9.994    -0.097     (0)  
   FerricCl+2      8.837e-11   3.628e-11   -10.054   -10.440    -0.387     (0)  
   Ferric+3        2.830e-11   1.920e-12   -10.548   -11.717    -1.169     (0)  
   Ferric(OH)4-    8.386e-12   6.713e-12   -11.076   -11.173    -0.097     (0)  
   FerricCl3       4.973e-12   6.346e-12   -11.303   -11.197     0.106     (0)  
   Ferric2(OH)2+4   1.717e-14   4.879e-16   -13.765   -15.312    -1.546     (0)  
   Ferric3(OH)4+5   1.287e-17   4.937e-20   -16.890   -19.307    -2.416     (0)  
Ferrous       4.011e-03
   Ferrous+2       3.291e-03   6.669e-04    -2.483    -3.176    -0.693     (0)  
   FerrousCl+      7.197e-04   5.761e-04    -3.143    -3.240    -0.097     (0)  
   FerrousHCO3+    2.150e-07   1.721e-07    -6.668    -6.764    -0.097     (0)  
   FerrousOH+      9.050e-08   7.244e-08    -7.043    -7.140    -0.097     (0)  
   FerrousCO3      5.405e-10   6.898e-10    -9.267    -9.161     0.106     (0)  
Glucose       5.400e-04
   Glucose         5.400e-04   6.891e-04    -3.268    -3.162     0.106     (0)  
H(0)          0.000e+00
   H2              0.000e+00   0.000e+00   -43.574   -43.468     0.106     (0)  
Methane       5.027e-15
   MethaneH4       5.027e-15   6.415e-15   -14.299   -14.193     0.106     (0)  
Na            1.044e+00
   Na+             1.044e+00   7.499e-01     0.019    -0.125    -0.144     (0)  
   NaHCO3          8.529e-07   1.088e-06    -6.069    -5.963     0.106     (0)  
   NaOH            1.334e-09   1.702e-09    -8.875    -8.769     0.106     (0)  
   NaCO3-          7.522e-10   6.021e-10    -9.124    -9.220    -0.097     (0)  
O(0)          5.241e-06
   O2              2.621e-06   3.344e-06    -5.582    -5.476     0.106     (0)  

------------------------------Saturation indices-------------------------------

  Phase               SI** log IAP   log K(298 K,   0 atm)

  FeRA           1224.66   -203.72-1428.38  C5H4O2Amm
  FixpH            -5.55     -5.55    0.00  H+
  H2(g)           -40.32    -43.47   -3.15  H2
  H2O(g)           -1.53     -0.02    1.51  H2O
  Halite           -1.91     -0.33    1.58  NaCl
  MeGA           1935.72   1726.47 -209.25  C5H4O2Amm
  redoxAragonite   -5.44    -13.77   -8.34  CaCO3
  redoxCalcite     -5.29    -13.77   -8.48  CaCO3
  redoxCH4(g)     -11.33    -14.19   -2.86  MethaneH4
  redoxCO2(g)      -3.30     -4.77   -1.47  CO2
  redoxFe(OH)3(a)   0.00      4.89    4.89  Ferric(OH)3
  redoxGoethite     5.91      4.91   -1.00  FerricOOH
  redoxHematite    13.84      9.83   -4.01  Ferric2O3
  redoxNH3(g)     -11.75     -9.98    1.77  AmmH3
  redoxSiderite    -2.65    -13.54  -10.89  FerrousCO3

**For a gas, SI = log10(fugacity). Fugacity = pressure * phi / 1 atm.
  For ideal gases, phi = 1.

------------------
End of simulation.
------------------

------------------------------------
Reading input data for simulation 4.
------------------------------------

---------------------------------
End of Run after 1.27432 Seconds.
---------------------------------

